Carbon_emission/Feeders/8500-Node/IEEE8500_EXP_VOLTAGES.CSV
Bus, BasekV, Node1, Magnitude1, Angle1, pu1, Node2, Magnitude2, Angle2, pu2, Node3, Magnitude3, Angle3, pu3, Node4, Magnitude4, Angle4, pu4
"SOURCEBUS", 115, 1,      69715,    0.0,      1.05, 2,      69715, -120.0,      1.05, 3,      69715,  120.0,      1.05, 0, 0, 0, 0
"_HVMV_SUB_LSB", 12.47, 1,    7576.59,  -29.4,    1.0524, 2,     7553.7, -148.9,    1.0492, 3,    7570.22,   91.1,    1.0515, 0, 0, 0, 0
"HVMV_SUB_48332", 12.47, 1,    7576.59,  -29.4,    1.0524, 2,     7553.7, -148.9,    1.0492, 3,    7570.22,   91.1,    1.0515, 0, 0, 0, 0
"M1009763", 12.47, 1,    7253.17,  -31.7,    1.0074, 2,    7334.55, -149.8,    1.0187, 3,    7397.61,   95.8,    1.0275, 0, 0, 0, 0
"L2673322", 12.47, 1,    3675.21,   35.4,   0.51048, 2,    7334.39, -149.8,    1.0187, 3,    3675.21,   35.4,   0.51048, 4, 1.65489E-020,   35.4, 2.2986E-024
"M1069148", 12.47, 3,    7505.09,   91.2,    1.0424, 0, 0, 0, 0, 0, 0, 0, 0, 0, 0, 0, 0
"L2673309", 12.47, 3,       7505,   91.2,    1.0424, 0, 0, 0, 0, 0, 0, 0, 0, 0, 0, 0, 0
"M1069588", 12.47, 2,    7517.31, -148.6,    1.0441, 0, 0, 0, 0, 0, 0, 0, 0, 0, 0, 0, 0
"L2804270", 12.47, 2,    7517.29, -148.6,    1.0441, 0, 0, 0, 0, 0, 0, 0, 0, 0, 0, 0, 0
"M3036164", 12.47, 2,    7273.23, -149.6,    1.0102, 0, 0, 0, 0, 0, 0, 0, 0, 0, 0, 0, 0
"L2935553", 12.47, 2,    7272.39, -149.6,    1.0101, 0, 0, 0, 0, 0, 0, 0, 0, 0, 0, 0, 0
"M1209749", 12.47, 2,     7594.7, -148.5,    1.0549, 0, 0, 0, 0, 0, 0, 0, 0, 0, 0, 0, 0
"L2748840", 12.47, 2,    7594.62, -148.5,    1.0549, 0, 0, 0, 0, 0, 0, 0, 0, 0, 0, 0, 0
"M1108264", 12.47, 2,     7493.8, -149.0,    1.0409, 0, 0, 0, 0, 0, 0, 0, 0, 0, 0, 0, 0
"M1108263", 12.47, 2,    7493.46, -149.0,    1.0408, 0, 0, 0, 0, 0, 0, 0, 0, 0, 0, 0, 0
"L3085398", 12.47, 1,    7285.78,  -31.7,     1.012, 2,    7366.77, -149.7,    1.0232, 3,    7399.93,   95.7,    1.0278, 0, 0, 0, 0
"M1026891", 12.47, 1,    7283.37,  -31.7,    1.0116, 2,    7362.49, -149.8,    1.0226, 3,    7399.59,   95.7,    1.0278, 0, 0, 0, 0
"L3216367", 12.47, 1,    7339.99,  -31.3,    1.0195, 2,    7348.62, -149.5,    1.0207, 3,    7375.07,   95.5,    1.0244, 0, 0, 0, 0
"M1069468", 12.47, 1,    7339.44,  -31.3,    1.0194, 2,    7347.46, -149.5,    1.0205, 3,    7374.91,   95.5,    1.0244, 0, 0, 0, 0
"M1142800", 12.47, 2,    7616.88, -148.0,     1.058, 0, 0, 0, 0, 0, 0, 0, 0, 0, 0, 0, 0
"M1142799", 12.47, 2,    7616.75, -148.0,    1.0579, 0, 0, 0, 0, 0, 0, 0, 0, 0, 0, 0, 0
"M1047592", 12.47, 1,    7383.94,  -31.3,    1.0256, 2,    7403.56, -149.4,    1.0283, 3,    7408.39,   95.6,     1.029, 0, 0, 0, 0
"P827512", 12.47, 3,    7408.39,   95.6,     1.029, 0, 0, 0, 0, 0, 0, 0, 0, 0, 0, 0, 0
"M1047339", 12.47, 1,    7436.38,  -30.5,    1.0329, 2,    7415.03, -150.1,    1.0299, 3,    7532.81,   90.6,    1.0463, 0, 0, 0, 0
"P895104", 12.47, 1,    7436.36,  -30.5,    1.0329, 0, 0, 0, 0, 0, 0, 0, 0, 0, 0, 0, 0
"M1026915", 12.47, 1,     7284.2,  -31.7,    1.0118, 2,    7368.96, -149.7,    1.0235, 3,    7399.52,   95.7,    1.0278, 0, 0, 0, 0
"M1026920", 12.47, 1,    7282.45,  -31.7,    1.0115, 2,    7368.62, -149.7,    1.0235, 3,    7399.17,   95.7,    1.0277, 0, 0, 0, 0
"N1138596", 12.47, 1,    7322.87,  -31.2,    1.0171, 0, 0, 0, 0, 0, 0, 0, 0, 0, 0, 0, 0
"L3254207", 12.47, 1,     7322.6,  -31.2,    1.0171, 0, 0, 0, 0, 0, 0, 0, 0, 0, 0, 0, 0
"M1069464", 12.47, 1,    7338.57,  -31.3,    1.0193, 2,    7345.38, -149.5,    1.0203, 3,    7374.65,   95.5,    1.0243, 0, 0, 0, 0
"P873787", 12.47, 2,    7345.37, -149.5,    1.0203, 0, 0, 0, 0, 0, 0, 0, 0, 0, 0, 0, 0
"N1144665", 12.47, 1,    7407.05,  -31.2,    1.0288, 2,     7407.6, -149.2,    1.0289, 3,    7407.77,   95.6,    1.0289, 0, 0, 0, 0
"M1047515", 12.47, 1,     7402.7,  -31.2,    1.0282, 2,    7405.99, -149.2,    1.0287, 3,    7405.72,   95.6,    1.0286, 0, 0, 0, 0
"N1137002", 12.47, 1,     7374.3,  -31.2,    1.0243, 0, 0, 0, 0, 0, 0, 0, 0, 0, 0, 0, 0
"M1047707", 12.47, 1,    7374.08,  -31.2,    1.0242, 0, 0, 0, 0, 0, 0, 0, 0, 0, 0, 0, 0
"L2729406", 12.47, 3,    7508.75,   92.1,    1.0429, 0, 0, 0, 0, 0, 0, 0, 0, 0, 0, 0, 0
"L2897768", 12.47, 3,    7508.35,   92.1,    1.0429, 0, 0, 0, 0, 0, 0, 0, 0, 0, 0, 0, 0
"L3649301", 12.47, 1,    7356.29,  -31.5,    1.0218, 0, 0, 0, 0, 0, 0, 0, 0, 0, 0, 0, 0
"L3649302", 12.47, 1,    7355.82,  -31.5,    1.0217, 0, 0, 0, 0, 0, 0, 0, 0, 0, 0, 0, 0
"L2970842", 12.47, 2,    7508.26, -149.0,    1.0429, 0, 0, 0, 0, 0, 0, 0, 0, 0, 0, 0, 0
"M1089113", 12.47, 2,    7507.42, -149.0,    1.0428, 0, 0, 0, 0, 0, 0, 0, 0, 0, 0, 0, 0
"M1047312", 12.47, 1,    7420.31,  -30.5,    1.0307, 2,    7396.37, -150.1,    1.0273, 3,    7530.75,   90.6,     1.046, 0, 0, 0, 0
"P893163", 12.47, 1,    7420.28,  -30.5,    1.0307, 0, 0, 0, 0, 0, 0, 0, 0, 0, 0, 0, 0
"L2822871", 12.47, 1,    7312.74,  -31.6,    1.0157, 2,    7386.46, -149.6,     1.026, 3,    7401.16,   95.7,     1.028, 4, 2.24762E-020,  107.1, 3.1219E-024
"M1026872", 12.47, 1,    7310.47,  -31.6,    1.0154, 2,    7385.05, -149.6,    1.0258, 3,    7401.01,   95.7,     1.028, 0, 0, 0, 0
"M1026312", 12.47, 2,    7315.16, -150.3,    1.0161, 0, 0, 0, 0, 0, 0, 0, 0, 0, 0, 0, 0
"L2973163", 12.47, 2,    7313.71, -150.3,    1.0159, 0, 0, 0, 0, 0, 0, 0, 0, 0, 0, 0, 0
"L3728038", 12.47, 1,    7342.44,  -31.3,    1.0198, 0, 0, 0, 0, 0, 0, 0, 0, 0, 0, 0, 0
"L3728039", 12.47, 1,    7342.06,  -31.3,    1.0198, 0, 0, 0, 0, 0, 0, 0, 0, 0, 0, 0, 0
"M1069567", 12.47, 2,     7523.9, -148.5,    1.0451, 0, 0, 0, 0, 0, 0, 0, 0, 0, 0, 0, 0
"M1069582", 12.47, 2,    7519.17, -148.6,    1.0444, 0, 0, 0, 0, 0, 0, 0, 0, 0, 0, 0, 0
"N1140830", 12.47, 1,    7260.03,  -31.4,    1.0084, 0, 0, 0, 0, 0, 0, 0, 0, 0, 0, 0, 0
"L3216351", 12.47, 1,    7259.97,  -31.4,    1.0084, 0, 0, 0, 0, 0, 0, 0, 0, 0, 0, 0, 0
"L2952007", 12.47, 3,    7502.73,   91.2,    1.0421, 0, 0, 0, 0, 0, 0, 0, 0, 0, 0, 0, 0
"L2861158", 12.47, 3,    7502.63,   91.2,    1.0421, 0, 0, 0, 0, 0, 0, 0, 0, 0, 0, 0, 0
"N1140827", 12.47, 1,    7263.99,  -31.4,    1.0089, 2,    7403.61, -149.2,    1.0283, 3,    7351.09,   95.8,     1.021, 0, 0, 0, 0
"M1026726", 12.47, 1,    7263.97,  -31.4,    1.0089, 2,    7403.57, -149.2,    1.0283, 3,    7351.08,   95.8,     1.021, 0, 0, 0, 0
"L2730106", 12.47, 1,    7295.26,  -28.1,    1.0133, 2,    7704.66, -146.9,    1.0702, 3,    7589.93,   95.3,    1.0542, 4, 1.81469E-020,  100.5, 2.5206E-024
"N1142099", 12.47, 1,    7293.72,  -28.1,    1.0131, 2,    7705.36, -146.9,    1.0703, 3,    7590.02,   95.4,    1.0542, 0, 0, 0, 0
"M1026658", 12.47, 1,    7258.59,  -31.4,    1.0082, 2,    7404.97, -149.2,    1.0285, 3,    7344.42,   95.8,    1.0201, 0, 0, 0, 0
"L3172805", 12.47, 1,    7258.45,  -31.4,    1.0082, 0, 0, 0, 0, 0, 0, 0, 0, 0, 0, 0, 0
"P895112", 12.47, 1,    7462.35,  -28.7,    1.0365, 0, 0, 0, 0, 0, 0, 0, 0, 0, 0, 0, 0
"L3048962", 12.47, 1,    7462.33,  -28.7,    1.0365, 2,    3739.46,  156.4,    0.5194, 3,    3739.46,  156.4,    0.5194, 4, 1.64885E-020,  156.4, 2.2902E-024
"L2991914", 12.47, 1,    7365.81,  -31.2,    1.0231, 2,    7395.91, -149.2,    1.0273, 3,     7388.6,   95.7,    1.0263, 0, 0, 0, 0
"M1047503", 12.47, 1,    7363.34,  -31.2,    1.0227, 2,     7396.1, -149.2,    1.0273, 3,    7387.51,   95.7,    1.0261, 0, 0, 0, 0
"M1047751", 12.47, 1,    7336.04,  -31.1,     1.019, 0, 0, 0, 0, 0, 0, 0, 0, 0, 0, 0, 0
"L2973154", 12.47, 1,    7336.02,  -31.1,     1.019, 0, 0, 0, 0, 0, 0, 0, 0, 0, 0, 0, 0
"L3010565", 12.47, 3,    7504.61,   91.2,    1.0424, 0, 0, 0, 0, 0, 0, 0, 0, 0, 0, 0, 0
"L2897775", 12.47, 3,    7504.54,   91.2,    1.0424, 0, 0, 0, 0, 0, 0, 0, 0, 0, 0, 0, 0
"M1125955", 12.47, 3,    7586.79,   94.0,    1.0538, 0, 0, 0, 0, 0, 0, 0, 0, 0, 0, 0, 0
"M1125957", 12.47, 3,    7586.78,   94.0,    1.0538, 0, 0, 0, 0, 0, 0, 0, 0, 0, 0, 0, 0
"M1069640", 12.47, 2,    7507.49, -148.6,    1.0428, 0, 0, 0, 0, 0, 0, 0, 0, 0, 0, 0, 0
"L2804269", 12.47, 2,    7507.18, -148.6,    1.0427, 0, 0, 0, 0, 0, 0, 0, 0, 0, 0, 0, 0
"M1026702", 12.47, 1,    7280.71,  -31.4,    1.0113, 2,    7402.98, -149.2,    1.0283, 3,     7358.5,   95.8,    1.0221, 0, 0, 0, 0
"N1139551", 12.47, 1,    7272.53,  -31.4,    1.0101, 2,    7403.75, -149.2,    1.0284, 3,    7355.93,   95.8,    1.0217, 0, 0, 0, 0
"N1136355", 12.47, 2,    7543.62, -148.5,    1.0478, 0, 0, 0, 0, 0, 0, 0, 0, 0, 0, 0, 0
"L2783231", 12.47, 2,    7540.02, -148.5,    1.0473, 0, 0, 0, 0, 0, 0, 0, 0, 0, 0, 0, 0
"L2748143", 12.47, 1,    7295.23,  -29.9,    1.0133, 0, 0, 0, 0, 0, 0, 0, 0, 0, 0, 0, 0
"L3251854", 12.47, 1,     7295.1,  -29.9,    1.0133, 0, 0, 0, 0, 0, 0, 0, 0, 0, 0, 0, 0
"M1069610", 12.47, 2,    7511.56, -148.6,    1.0433, 0, 0, 0, 0, 0, 0, 0, 0, 0, 0, 0, 0
"M1069600", 12.47, 2,    7511.46, -148.6,    1.0433, 0, 0, 0, 0, 0, 0, 0, 0, 0, 0, 0, 0
"M1069424", 12.47, 1,    7331.57,  -31.2,    1.0183, 2,    7329.37, -149.6,     1.018, 3,    7373.18,   95.5,    1.0241, 0, 0, 0, 0
"L2935549", 12.47, 1,    7330.57,  -31.2,    1.0182, 2,    7327.17, -149.6,    1.0177, 3,    7373.18,   95.5,    1.0241, 0, 0, 0, 0
"P895089", 12.47, 3,    7514.46,   95.6,    1.0437, 0, 0, 0, 0, 0, 0, 0, 0, 0, 0, 0, 0
"L3235242", 12.47, 3,    7514.35,   95.6,    1.0437, 0, 0, 0, 0, 0, 0, 0, 0, 0, 0, 0, 0
"M1026795", 12.47, 1,    7339.22,  -31.3,    1.0194, 2,    7398.23, -149.2,    1.0276, 3,    7377.13,   95.7,    1.0247, 0, 0, 0, 0
"N1140522", 12.47, 3,    7377.08,   95.7,    1.0247, 0, 0, 0, 0, 0, 0, 0, 0, 0, 0, 0, 0
"L3030199", 12.47, 1,    7514.78,  -28.8,    1.0438, 2,    7618.98, -148.0,    1.0583, 3,    7593.94,   92.5,    1.0548, 0, 0, 0, 0
"M1125934", 12.47, 1,    7515.61,  -28.8,    1.0439, 2,    7618.59, -148.0,    1.0582, 3,       7594,   92.5,    1.0548, 4,  0.0244118,  113.9, 3.3907E-006
"M1069189", 12.47, 1,    7494.42,  -29.9,     1.041, 2,     7487.4, -149.2,      1.04, 3,    7515.62,   91.1,    1.0439, 0, 0, 0, 0
"L2860487", 12.47, 3,    7515.56,   91.1,    1.0439, 0, 0, 0, 0, 0, 0, 0, 0, 0, 0, 0, 0
"221-312488", 12.47, 1,    7320.65,  -28.3,    1.0168, 2,    7676.67, -147.2,    1.0663, 3,     7580.6,   94.8,    1.0529, 0, 0, 0, 0
"M1089183", 12.47, 1,    7320.65,  -28.3,    1.0168, 2,    7676.66, -147.2,    1.0663, 3,     7580.6,   94.8,    1.0529, 0, 0, 0, 0
"M1108464", 12.47, 2,    7675.21, -147.2,    1.0661, 0, 0, 0, 0, 0, 0, 0, 0, 0, 0, 0, 0
"L3102286", 12.47, 2,    7674.96, -147.2,     1.066, 0, 0, 0, 0, 0, 0, 0, 0, 0, 0, 0, 0
"F739845", 12.47, 1,    7411.68,  -30.5,    1.0295, 2,    7382.63, -150.1,    1.0254, 3,    7529.72,   90.6,    1.0459, 0, 0, 0, 0
"293471", 12.47, 1,    7411.66,  -30.5,    1.0295, 2,     7382.6, -150.1,    1.0254, 3,     7529.7,   90.6,    1.0459, 0, 0, 0, 0
"P827499", 12.47, 1,    7329.48,  -31.2,     1.018, 0, 0, 0, 0, 0, 0, 0, 0, 0, 0, 0, 0
"N1139254", 12.47, 1,    7329.48,  -31.2,     1.018, 0, 0, 0, 0, 0, 0, 0, 0, 0, 0, 0, 0
"M1026657", 12.47, 1,    7254.96,  -31.4,    1.0077, 0, 0, 0, 0, 0, 0, 0, 0, 0, 0, 0, 0
"M1026656", 12.47, 1,    7254.77,  -31.4,    1.0077, 0, 0, 0, 0, 0, 0, 0, 0, 0, 0, 0, 0
"M1108299", 12.47, 2,    7610.73, -148.1,    1.0571, 0, 0, 0, 0, 0, 0, 0, 0, 0, 0, 0, 0
"M1108300", 12.47, 2,    7610.72, -148.1,    1.0571, 0, 0, 0, 0, 0, 0, 0, 0, 0, 0, 0, 0
"L3198355", 12.47, 2,    7610.49, -148.1,    1.0571, 0, 0, 0, 0, 0, 0, 0, 0, 0, 0, 0, 0
"L2805037", 12.47, 2,    7610.49, -148.1,    1.0571, 0, 0, 0, 0, 0, 0, 0, 0, 0, 0, 0, 0
"N1137994", 12.47, 3,    7375.73,   95.5,    1.0245, 0, 0, 0, 0, 0, 0, 0, 0, 0, 0, 0, 0
"M1069484", 12.47, 3,    7375.07,   95.5,    1.0244, 0, 0, 0, 0, 0, 0, 0, 0, 0, 0, 0, 0
"L2860504", 12.47, 1,    7260.95,  -31.4,    1.0085, 0, 0, 0, 0, 0, 0, 0, 0, 0, 0, 0, 0
"L2860493", 12.47, 1,    7260.57,  -31.4,    1.0085, 0, 0, 0, 0, 0, 0, 0, 0, 0, 0, 0, 0
"M1026783", 12.47, 1,    7331.74,  -31.3,    1.0184, 2,    7398.86, -149.2,    1.0277, 3,    7374.76,   95.7,    1.0243, 0, 0, 0, 0
"M1026780", 12.47, 1,    7330.52,  -31.3,    1.0182, 2,    7398.96, -149.2,    1.0277, 3,    7374.37,   95.7,    1.0243, 0, 0, 0, 0
"P895111", 12.47, 3,     7588.4,   93.4,     1.054, 0, 0, 0, 0, 0, 0, 0, 0, 0, 0, 0, 0
"L2895496", 12.47, 3,     7588.2,   93.4,     1.054, 0, 0, 0, 0, 0, 0, 0, 0, 0, 0, 0, 0
"N1140819", 12.47, 1,    7266.76,  -31.4,    1.0093, 2,    7403.66, -149.2,    1.0283, 3,    7352.94,   95.8,    1.0213, 0, 0, 0, 0
"M1026700", 12.47, 1,    7265.94,  -31.4,    1.0092, 2,    7403.62, -149.2,    1.0283, 3,    7352.46,   95.8,    1.0212, 0, 0, 0, 0
"M1089173", 12.47, 3,    7510.13,   92.1,    1.0431, 0, 0, 0, 0, 0, 0, 0, 0, 0, 0, 0, 0
"L2935551", 12.47, 3,    7509.68,   92.1,    1.0431, 0, 0, 0, 0, 0, 0, 0, 0, 0, 0, 0, 0
"M1026344", 12.47, 1,     7389.5,  -30.5,    1.0264, 0, 0, 0, 0, 0, 0, 0, 0, 0, 0, 0, 0
"M1026364", 12.47, 1,    7389.34,  -30.5,    1.0264, 0, 0, 0, 0, 0, 0, 0, 0, 0, 0, 0, 0
"L2879070", 12.47, 1,    7373.93,  -31.4,    1.0242, 2,    7402.39, -149.4,    1.0282, 3,    7406.72,   95.7,    1.0288, 0, 0, 0, 0
"L3216345", 12.47, 1,    7367.11,  -31.4,    1.0233, 2,    7401.76, -149.4,    1.0281, 3,    7406.02,   95.7,    1.0287, 0, 0, 0, 0
"M1069428", 12.47, 1,    7332.53,  -31.2,    1.0185, 2,    7331.22, -149.5,    1.0183, 3,    7373.19,   95.5,    1.0241, 0, 0, 0, 0
"N1139257", 12.47, 2,     7331.2, -149.5,    1.0183, 0, 0, 0, 0, 0, 0, 0, 0, 0, 0, 0, 0
"L2991919", 12.47, 1,    7387.66,  -30.5,    1.0261, 0, 0, 0, 0, 0, 0, 0, 0, 0, 0, 0, 0
"M1026361", 12.47, 1,    7386.51,  -30.5,     1.026, 0, 0, 0, 0, 0, 0, 0, 0, 0, 0, 0, 0
"N1147857", 12.47, 1,    7253.15,  -31.7,    1.0074, 0, 0, 0, 0, 0, 0, 0, 0, 0, 0, 0, 0
"M1009742", 12.47, 1,       7252,  -31.7,    1.0073, 0, 0, 0, 0, 0, 0, 0, 0, 0, 0, 0, 0
"Q14412", 12.47, 1,    7431.99,  -30.5,    1.0323, 2,    7410.24, -150.1,    1.0293, 3,    7532.26,   90.6,    1.0462, 0, 0, 0, 0
"M1047325", 12.47, 1,    7430.74,  -30.5,    1.0321, 2,    7408.87, -150.1,    1.0291, 3,    7532.11,   90.6,    1.0462, 0, 0, 0, 0
"N1139263", 12.47, 1,    7339.39,  -31.3,    1.0194, 0, 0, 0, 0, 0, 0, 0, 0, 0, 0, 0, 0
"L3048227", 12.47, 1,    7339.36,  -31.3,    1.0194, 0, 0, 0, 0, 0, 0, 0, 0, 0, 0, 0, 0
"P827506", 12.47, 1,    7339.42,  -31.3,    1.0194, 0, 0, 0, 0, 0, 0, 0, 0, 0, 0, 0, 0
"M1069469", 12.47, 1,     7339.4,  -31.3,    1.0194, 0, 0, 0, 0, 0, 0, 0, 0, 0, 0, 0, 0
"M1027019", 12.47, 2,    7358.47, -149.8,    1.0221, 0, 0, 0, 0, 0, 0, 0, 0, 0, 0, 0, 0
"L2785522", 12.47, 2,    7358.43, -149.8,    1.0221, 0, 0, 0, 0, 0, 0, 0, 0, 0, 0, 0, 0
"L3216338", 12.47, 2,    7300.91, -149.9,    1.0141, 0, 0, 0, 0, 0, 0, 0, 0, 0, 0, 0, 0
"L2973146", 12.47, 2,    7300.87, -149.9,    1.0141, 0, 0, 0, 0, 0, 0, 0, 0, 0, 0, 0, 0
"M3037452", 12.47, 1,    7383.03,  -30.5,    1.0255, 0, 0, 0, 0, 0, 0, 0, 0, 0, 0, 0, 0
"L2973164", 12.47, 1,    7382.96,  -30.5,    1.0255, 0, 0, 0, 0, 0, 0, 0, 0, 0, 0, 0, 0
"L3120376", 12.47, 1,     7325.7,  -31.6,    1.0175, 0, 0, 0, 0, 0, 0, 0, 0, 0, 0, 0, 0
"M1026925", 12.47, 1,    7324.56,  -31.6,    1.0174, 0, 0, 0, 0, 0, 0, 0, 0, 0, 0, 0, 0
"M1047612", 12.47, 3,    7410.29,   95.6,    1.0293, 0, 0, 0, 0, 0, 0, 0, 0, 0, 0, 0, 0
"P828360", 12.47, 3,    7410.27,   95.6,    1.0293, 0, 0, 0, 0, 0, 0, 0, 0, 0, 0, 0, 0
"M1089195", 12.47, 3,    7514.18,   95.6,    1.0437, 0, 0, 0, 0, 0, 0, 0, 0, 0, 0, 0, 0
"L3141393", 12.47, 3,    7514.05,   95.6,    1.0437, 0, 0, 0, 0, 0, 0, 0, 0, 0, 0, 0, 0
"M1026946", 12.47, 2,    7361.03, -149.8,    1.0224, 0, 0, 0, 0, 0, 0, 0, 0, 0, 0, 0, 0
"M1026940", 12.47, 2,    7360.68, -149.8,    1.0224, 0, 0, 0, 0, 0, 0, 0, 0, 0, 0, 0, 0
"M1047471", 12.47, 2,    7247.37, -149.8,    1.0066, 0, 0, 0, 0, 0, 0, 0, 0, 0, 0, 0, 0
"L3216349", 12.47, 2,    7247.35, -149.8,    1.0066, 0, 0, 0, 0, 0, 0, 0, 0, 0, 0, 0, 0
"M1047401", 12.47, 1,    7218.41,  -31.5,    1.0026, 0, 0, 0, 0, 0, 0, 0, 0, 0, 0, 0, 0
"L2748132", 12.47, 1,    7218.36,  -31.5,    1.0026, 0, 0, 0, 0, 0, 0, 0, 0, 0, 0, 0, 0
"L3122820", 12.47, 1,    7239.11,  -31.5,    1.0055, 0, 0, 0, 0, 0, 0, 0, 0, 0, 0, 0, 0
"L3141398", 12.47, 1,    7239.04,  -31.5,    1.0055, 0, 0, 0, 0, 0, 0, 0, 0, 0, 0, 0, 0
"M1108360", 12.47, 3,    7546.83,   92.2,    1.0482, 0, 0, 0, 0, 0, 0, 0, 0, 0, 0, 0, 0
"L3048968", 12.47, 3,    7546.73,   92.2,    1.0482, 0, 0, 0, 0, 0, 0, 0, 0, 0, 0, 0, 0
"L2801950", 12.47, 3,    7496.66,   91.1,    1.0413, 0, 0, 0, 0, 0, 0, 0, 0, 0, 0, 0, 0
"M1069224", 12.47, 3,    7496.45,   91.1,    1.0412, 0, 0, 0, 0, 0, 0, 0, 0, 0, 0, 0, 0
"L2766746", 12.47, 3,    7373.08,   95.8,    1.0241, 0, 0, 0, 0, 0, 0, 0, 0, 0, 0, 0, 0
"M1027073", 12.47, 3,    7372.38,   95.8,     1.024, 0, 0, 0, 0, 0, 0, 0, 0, 0, 0, 0, 0
"M1142873", 12.47, 3,    7588.06,   93.4,     1.054, 0, 0, 0, 0, 0, 0, 0, 0, 0, 0, 0, 0
"M1069181", 12.47, 1,     7481.1,  -30.0,    1.0391, 0, 0, 0, 0, 0, 0, 0, 0, 0, 0, 0, 0
"L2973151", 12.47, 1,    7480.79,  -30.0,    1.0391, 2,    3748.73,  155.1,   0.52069, 3,    3748.73,  155.1,   0.52069, 4, 1.64803E-020,  155.1, 2.2891E-024
"L3179682", 12.47, 3,    7590.81,   92.2,    1.0543, 0, 0, 0, 0, 0, 0, 0, 0, 0, 0, 0, 0
"L2786274", 12.47, 3,     7590.8,   92.2,    1.0543, 0, 0, 0, 0, 0, 0, 0, 0, 0, 0, 0, 0
"L3066816", 12.47, 1,     7259.4,  -31.4,    1.0083, 0, 0, 0, 0, 0, 0, 0, 0, 0, 0, 0, 0
"M1026667", 12.47, 1,    7259.31,  -31.4,    1.0083, 0, 0, 0, 0, 0, 0, 0, 0, 0, 0, 0, 0
"M1108529", 12.47, 1,     7461.4,  -28.4,    1.0364, 2,    7526.73, -147.1,    1.0454, 3,    7499.35,   95.6,    1.0416, 0, 0, 0, 0
"M1108532", 12.47, 1,    7459.32,  -28.5,    1.0361, 2,    7527.02, -147.2,    1.0455, 3,    7499.62,   95.6,    1.0417, 0, 0, 0, 0
"L2766723", 12.47, 1,    7260.39,  -31.4,    1.0084, 0, 0, 0, 0, 0, 0, 0, 0, 0, 0, 0, 0
"L3122822", 12.47, 1,    7260.31,  -31.4,    1.0084, 0, 0, 0, 0, 0, 0, 0, 0, 0, 0, 0, 0
"L2673312", 12.47, 1,    7235.65,  -31.7,     1.005, 0, 0, 0, 0, 0, 0, 0, 0, 0, 0, 0, 0
"L3235247", 12.47, 1,    7235.53,  -31.7,     1.005, 0, 0, 0, 0, 0, 0, 0, 0, 0, 0, 0, 0
"M1166391", 12.47, 3,    7509.88,   91.2,    1.0431, 0, 0, 0, 0, 0, 0, 0, 0, 0, 0, 0, 0
"L3254873", 12.47, 3,    7508.03,   91.2,    1.0428, 0, 0, 0, 0, 0, 0, 0, 0, 0, 0, 0, 0
"L2861157", 12.47, 3,    7527.95,   91.3,    1.0456, 0, 0, 0, 0, 0, 0, 0, 0, 0, 0, 0, 0
"P901951", 12.47, 3,    7526.25,   91.3,    1.0454, 0, 0, 0, 0, 0, 0, 0, 0, 0, 0, 0, 0
"M1047346", 12.47, 1,    7443.29,  -30.5,    1.0339, 2,    7421.57, -150.1,    1.0308, 3,    7533.58,   90.5,    1.0464, 0, 0, 0, 0
"M1047345", 12.47, 1,    7441.45,  -30.5,    1.0336, 2,    7419.93, -150.1,    1.0306, 3,    7533.38,   90.6,    1.0464, 0, 0, 0, 0
"L2989596", 12.47, 2,    7529.04, -148.5,    1.0458, 0, 0, 0, 0, 0, 0, 0, 0, 0, 0, 0, 0
"L2822873", 12.47, 2,    7528.99, -148.5,    1.0458, 0, 0, 0, 0, 0, 0, 0, 0, 0, 0, 0, 0
"M1108328", 12.47, 3,    7578.48,   92.2,    1.0526, 0, 0, 0, 0, 0, 0, 0, 0, 0, 0, 0, 0
"L2875754", 12.47, 3,    7578.45,   92.2,    1.0526, 0, 0, 0, 0, 0, 0, 0, 0, 0, 0, 0, 0
"L2786204", 12.47, 3,    7559.15,   91.4,    1.0499, 0, 0, 0, 0, 0, 0, 0, 0, 0, 0, 0, 0
"M1209819", 12.47, 3,    7556.98,   91.4,    1.0496, 0, 0, 0, 0, 0, 0, 0, 0, 0, 0, 0, 0
"P901972", 12.47, 1,    7251.75,  -31.7,    1.0072, 0, 0, 0, 0, 0, 0, 0, 0, 0, 0, 0, 0
"M1009726", 12.47, 1,    7249.91,  -31.7,     1.007, 0, 0, 0, 0, 0, 0, 0, 0, 0, 0, 0, 0
"M1047702", 12.47, 1,    7374.35,  -31.2,    1.0243, 0, 0, 0, 0, 0, 0, 0, 0, 0, 0, 0, 0
"N1137001", 12.47, 1,    7374.32,  -31.2,    1.0243, 0, 0, 0, 0, 0, 0, 0, 0, 0, 0, 0, 0
"L2767340", 12.47, 1,    7350.97,  -28.3,     1.021, 2,    7680.56, -147.3,    1.0668, 3,    7587.57,   94.6,    1.0539, 0, 0, 0, 0
"M3037449", 12.47, 1,    7350.97,  -28.3,     1.021, 2,    7680.56, -147.3,    1.0668, 3,    7587.56,   94.6,    1.0539, 0, 0, 0, 0
"M1047457", 12.47, 2,    7252.16, -149.8,    1.0073, 0, 0, 0, 0, 0, 0, 0, 0, 0, 0, 0, 0
"L2710546", 12.47, 2,    7251.63, -149.8,    1.0072, 0, 0, 0, 0, 0, 0, 0, 0, 0, 0, 0, 0
"L2674027", 12.47, 1,    7249.92,  -28.3,     1.007, 2,    7717.59, -147.0,     1.072, 3,    7593.02,   95.6,    1.0547, 0, 0, 0, 0
"L2692633", 12.47, 1,    7244.21,  -28.3,    1.0062, 2,    7718.58, -147.1,    1.0721, 3,    7593.44,   95.6,    1.0547, 0, 0, 0, 0
"N1142108", 12.47, 1,    7523.88,  -28.9,     1.045, 0, 0, 0, 0, 0, 0, 0, 0, 0, 0, 0, 0
"L2674051", 12.47, 1,    7523.84,  -28.9,     1.045, 0, 0, 0, 0, 0, 0, 0, 0, 0, 0, 0, 0
"M1069135", 12.47, 1,    7454.47,  -30.5,    1.0354, 2,    7431.43, -150.0,    1.0322, 3,    7534.23,   90.6,    1.0465, 0, 0, 0, 0
"R18242", 12.47, 1,    7452.82,  -30.5,    1.0352, 2,    7430.13, -150.0,     1.032, 3,    7535.15,   90.5,    1.0466, 0, 0, 0, 0
"M1047534", 12.47, 1,    7478.22,  -31.0,    1.0387, 2,    7430.95, -149.1,    1.0321, 3,     7434.2,   95.6,    1.0326, 0, 0, 0, 0
"N1136663", 12.47, 1,    7459.24,  -31.0,    1.0361, 2,    7425.25, -149.1,    1.0313, 3,    7428.41,   95.6,    1.0318, 0, 0, 0, 0
"M1108508", 12.47, 3,    7504.82,   95.6,    1.0424, 0, 0, 0, 0, 0, 0, 0, 0, 0, 0, 0, 0
"L3097861", 12.47, 3,    7504.74,   95.6,    1.0424, 0, 0, 0, 0, 0, 0, 0, 0, 0, 0, 0, 0
"M1069560", 12.47, 2,    7526.54, -148.5,    1.0454, 0, 0, 0, 0, 0, 0, 0, 0, 0, 0, 0, 0
"L2973153", 12.47, 1,    7384.17,  -31.2,    1.0256, 2,    7376.94, -149.4,    1.0246, 3,    7411.39,   95.6,    1.0294, 0, 0, 0, 0
"N1136998", 12.47, 1,    7383.68,  -31.2,    1.0256, 2,    7376.32, -149.4,    1.0246, 3,    7411.47,   95.6,    1.0294, 0, 0, 0, 0
"L2898515", 12.47, 3,    7584.42,   92.2,    1.0535, 0, 0, 0, 0, 0, 0, 0, 0, 0, 0, 0, 0
"M1166387", 12.47, 3,    7584.35,   92.2,    1.0534, 0, 0, 0, 0, 0, 0, 0, 0, 0, 0, 0, 0
"M1047442", 12.47, 2,     7270.2, -149.7,    1.0098, 0, 0, 0, 0, 0, 0, 0, 0, 0, 0, 0, 0
"L3235250", 12.47, 2,    7270.13, -149.7,    1.0098, 0, 0, 0, 0, 0, 0, 0, 0, 0, 0, 0, 0
"M1142871", 12.47, 1,    7446.04,  -28.7,    1.0342, 2,    7647.47, -147.7,    1.0622, 3,    7588.58,   93.3,     1.054, 0, 0, 0, 0
"M1142874", 12.47, 1,    7443.15,  -28.7,    1.0338, 2,    7648.44, -147.7,    1.0623, 3,    7588.42,   93.4,     1.054, 0, 0, 0, 0
"L2955081", 12.47, 1,    7525.51,  -28.9,    1.0453, 2,    7612.11, -148.1,    1.0573, 3,    7591.23,   92.3,    1.0544, 0, 0, 0, 0
"M1108315", 12.47, 1,    7526.79,  -28.9,    1.0455, 2,    7611.39, -148.1,    1.0572, 3,    7590.88,   92.2,    1.0544, 0, 0, 0, 0
"L2973162", 12.47, 1,    7389.43,  -30.5,    1.0264, 2,    7346.14, -150.2,    1.0204, 3,    7534.72,   90.6,    1.0466, 0, 0, 0, 0
"M1026333", 12.47, 1,    7389.07,  -30.5,    1.0263, 2,    7344.17, -150.2,    1.0201, 3,    7535.17,   90.6,    1.0466, 0, 0, 0, 0
"M1009832", 12.47, 2,     7307.2, -149.9,     1.015, 0, 0, 0, 0, 0, 0, 0, 0, 0, 0, 0, 0
"L2860479", 12.47, 2,    7307.19, -149.9,    1.0149, 0, 0, 0, 0, 0, 0, 0, 0, 0, 0, 0, 0
"M1026854", 12.47, 1,    7335.08,  -31.5,    1.0188, 2,    7395.76, -149.5,    1.0273, 3,    7402.86,   95.7,    1.0282, 0, 0, 0, 0
"P901894", 12.47, 1,    7334.94,  -31.5,    1.0188, 0, 0, 0, 0, 0, 0, 0, 0, 0, 0, 0, 0
"M1026485", 12.47, 2,    7403.35, -150.1,    1.0283, 0, 0, 0, 0, 0, 0, 0, 0, 0, 0, 0, 0
"M1026492", 12.47, 2,    7403.21, -150.1,    1.0283, 0, 0, 0, 0, 0, 0, 0, 0, 0, 0, 0, 0
"D6413567-3_INT", 12.47, 1,    7487.97,  -30.0,    1.0401, 2,    7480.77, -149.3,    1.0391, 3,    7517.38,   91.1,    1.0441, 0, 0, 0, 0
"E182724", 12.47, 1,    7487.97,  -30.0,    1.0401, 2,    7480.76, -149.3,    1.0391, 3,    7517.41,   91.1,    1.0441, 0, 0, 0, 0
"N1139541", 12.47, 1,    7488.62,  -30.0,    1.0402, 2,    7481.44, -149.3,    1.0392, 3,    7517.19,   91.1,    1.0441, 0, 0, 0, 0
"M4122658", 12.47, 1,    7307.78,  -28.2,     1.015, 2,    7698.99, -147.0,    1.0694, 3,     7589.3,   95.2,    1.0541, 0, 0, 0, 0
"L2933135", 12.47, 1,    7307.66,  -28.2,     1.015, 2,    7699.04, -147.0,    1.0694, 3,    7589.31,   95.2,    1.0541, 0, 0, 0, 0
"L2729414", 12.47, 1,    7280.68,  -31.4,    1.0113, 2,    7402.96, -149.2,    1.0283, 3,     7358.5,   95.8,    1.0221, 4, 2.28267E-020,  110.2, 3.1706E-024
"L2729430", 12.47, 2,    7332.96, -149.8,    1.0185, 0, 0, 0, 0, 0, 0, 0, 0, 0, 0, 0, 0
"L2766742", 12.47, 2,    7328.13, -149.8,    1.0179, 0, 0, 0, 0, 0, 0, 0, 0, 0, 0, 0, 0
"M1026972", 12.47, 2,    7274.36, -149.6,    1.0104, 0, 0, 0, 0, 0, 0, 0, 0, 0, 0, 0, 0
"L2860483", 12.47, 2,    7274.24, -149.6,    1.0104, 0, 0, 0, 0, 0, 0, 0, 0, 0, 0, 0, 0
"L2860490", 12.47, 1,       7448,  -30.5,    1.0345, 2,    7425.84, -150.0,    1.0314, 3,    7534.33,   90.5,    1.0465, 0, 0, 0, 0
"L3104134", 12.47, 1,    7445.26,  -30.5,    1.0341, 2,    7423.34, -150.1,    1.0311, 3,    7533.86,   90.5,    1.0464, 4, 2.52355E-021,   66.8, 3.5052E-025
"M1089144", 12.47, 1,    7485.62,  -29.4,    1.0397, 0, 0, 0, 0, 0, 0, 0, 0, 0, 0, 0, 0
"P827522", 12.47, 1,    7485.61,  -29.4,    1.0397, 0, 0, 0, 0, 0, 0, 0, 0, 0, 0, 0, 0
"M1089118", 12.47, 1,    7507.27,  -29.7,    1.0427, 2,     7505.4, -149.0,    1.0425, 3,    7524.61,   91.3,    1.0451, 0, 0, 0, 0
"L3048208", 12.47, 1,    7507.24,  -29.7,    1.0427, 2,    3762.01,  155.3,   0.52253, 3,    3762.01,  155.3,   0.52253, 4, 1.64689E-020,  155.3, 2.2875E-024
"M1108505", 12.47, 1,     7265.1,  -28.1,    1.0091, 2,    7715.03, -146.9,    1.0716, 3,    7591.88,   95.6,    1.0545, 0, 0, 0, 0
"L2955047", 12.47, 1,    7260.47,  -28.2,    1.0085, 2,    7715.81, -146.9,    1.0717, 3,    7592.23,   95.6,    1.0545, 0, 0, 0, 0
"M1089148", 12.47, 1,    7484.38,  -29.4,    1.0396, 0, 0, 0, 0, 0, 0, 0, 0, 0, 0, 0, 0
"L2766721", 12.47, 1,    7484.34,  -29.4,    1.0396, 0, 0, 0, 0, 0, 0, 0, 0, 0, 0, 0, 0
"M1026745", 12.47, 2,    7244.78, -149.8,    1.0063, 0, 0, 0, 0, 0, 0, 0, 0, 0, 0, 0, 0
"L3029183", 12.47, 2,    7244.58, -149.8,    1.0063, 0, 0, 0, 0, 0, 0, 0, 0, 0, 0, 0, 0
"L2710512", 12.47, 2,    7259.15, -149.6,    1.0083, 0, 0, 0, 0, 0, 0, 0, 0, 0, 0, 0, 0
"M1047828", 12.47, 2,    7256.97, -149.6,     1.008, 0, 0, 0, 0, 0, 0, 0, 0, 0, 0, 0, 0
"M1047342", 12.47, 1,    7441.23,  -30.5,    1.0336, 0, 0, 0, 0, 0, 0, 0, 0, 0, 0, 0, 0
"L3197645", 12.47, 1,    7441.18,  -30.5,    1.0336, 0, 0, 0, 0, 0, 0, 0, 0, 0, 0, 0, 0
"M1069192", 12.47, 1,    7482.34,  -30.0,    1.0393, 0, 0, 0, 0, 0, 0, 0, 0, 0, 0, 0, 0
"L3235253", 12.47, 1,    7482.29,  -30.0,    1.0393, 0, 0, 0, 0, 0, 0, 0, 0, 0, 0, 0, 0
"L3214071", 12.47, 1,    7401.25,  -28.5,     1.028, 2,    7662.66, -147.5,    1.0643, 3,    7586.96,   93.9,    1.0538, 0, 0, 0, 0
"M1125952", 12.47, 1,    7397.13,  -28.5,    1.0274, 2,    7664.07, -147.5,    1.0645, 3,    7586.88,   94.0,    1.0538, 0, 0, 0, 0
"M1027101", 12.47, 2,    7256.25, -149.6,    1.0079, 0, 0, 0, 0, 0, 0, 0, 0, 0, 0, 0, 0
"L2860480", 12.47, 2,     7256.1, -149.6,    1.0079, 0, 0, 0, 0, 0, 0, 0, 0, 0, 0, 0, 0
"L2710517", 12.47, 1,    7240.53,  -31.5,    1.0057, 0, 0, 0, 0, 0, 0, 0, 0, 0, 0, 0, 0
"M1026646", 12.47, 1,    7239.45,  -31.5,    1.0055, 0, 0, 0, 0, 0, 0, 0, 0, 0, 0, 0, 0
"M1069662", 12.47, 2,    7506.87, -148.6,    1.0427, 0, 0, 0, 0, 0, 0, 0, 0, 0, 0, 0, 0
"L2935547", 12.47, 2,    7506.83, -148.6,    1.0427, 0, 0, 0, 0, 0, 0, 0, 0, 0, 0, 0, 0
"M1026931", 12.47, 1,    7321.37,  -31.6,    1.0169, 0, 0, 0, 0, 0, 0, 0, 0, 0, 0, 0, 0
"L3216336", 12.47, 1,    7321.01,  -31.6,    1.0169, 0, 0, 0, 0, 0, 0, 0, 0, 0, 0, 0, 0
"L3142049", 12.47, 1,    7287.38,  -28.1,    1.0122, 2,    7708.23, -146.9,    1.0707, 3,    7590.42,   95.5,    1.0543, 0, 0, 0, 0
"M1108493", 12.47, 1,    7281.53,  -28.0,    1.0114, 2,    7710.87, -146.8,     1.071, 3,    7590.88,   95.5,    1.0544, 0, 0, 0, 0
"M1069169", 12.47, 1,     7483.9,  -30.0,    1.0395, 2,    7476.58, -149.4,    1.0385, 3,    7518.62,   91.0,    1.0443, 0, 0, 0, 0
"L3010556", 12.47, 1,    7481.49,  -30.1,    1.0392, 2,    7473.11, -149.4,     1.038, 3,    7519.61,   91.0,    1.0445, 0, 0, 0, 0
"L2991933", 12.47, 3,     7397.3,   95.7,    1.0275, 0, 0, 0, 0, 0, 0, 0, 0, 0, 0, 0, 0
"L3122837", 12.47, 3,    7397.16,   95.7,    1.0274, 0, 0, 0, 0, 0, 0, 0, 0, 0, 0, 0, 0
"L2691936", 12.47, 1,     7320.6,  -31.6,    1.0168, 0, 0, 0, 0, 0, 0, 0, 0, 0, 0, 0, 0
"L2897772", 12.47, 1,    7418.19,  -30.5,    1.0304, 0, 0, 0, 0, 0, 0, 0, 0, 0, 0, 0, 0
"L3101814", 12.47, 1,    7418.19,  -30.5,    1.0304, 0, 0, 0, 0, 0, 0, 0, 0, 0, 0, 0, 0
"L2766732", 12.47, 2,     7403.4, -150.1,    1.0283, 0, 0, 0, 0, 0, 0, 0, 0, 0, 0, 0, 0
"L2989564", 12.47, 2,    7507.03, -148.6,    1.0427, 0, 0, 0, 0, 0, 0, 0, 0, 0, 0, 0, 0
"M1126016", 12.47, 1,    7256.01,  -28.2,    1.0078, 0, 0, 0, 0, 0, 0, 0, 0, 0, 0, 0, 0
"L3120534", 12.47, 1,    7255.88,  -28.2,    1.0078, 0, 0, 0, 0, 0, 0, 0, 0, 0, 0, 0, 0
"M1026330", 12.47, 1,    7388.49,  -30.5,    1.0262, 2,    7340.33, -150.2,    1.0196, 3,    7536.12,   90.6,    1.0467, 0, 0, 0, 0
"L2766726", 12.47, 2,     7340.3, -150.2,    1.0195, 0, 0, 0, 0, 0, 0, 0, 0, 0, 0, 0, 0
"P901912", 12.47, 2,    7390.81, -149.3,    1.0266, 0, 0, 0, 0, 0, 0, 0, 0, 0, 0, 0, 0
"L3195365", 12.47, 2,    7390.81, -149.3,    1.0266, 0, 0, 0, 0, 0, 0, 0, 0, 0, 0, 0, 0
"M1108381", 12.47, 1,    7322.34,  -28.3,    1.0171, 2,    7678.11, -147.2,    1.0665, 3,    7582.34,   94.8,    1.0532, 0, 0, 0, 0
"L3254237", 12.47, 1,    7321.76,  -28.3,     1.017, 2,    7677.83, -147.2,    1.0664, 3,    7581.92,   94.8,    1.0531, 0, 0, 0, 0
"L2804262", 12.47, 1,    7333.37,  -31.6,    1.0186, 0, 0, 0, 0, 0, 0, 0, 0, 0, 0, 0, 0
"L2841639", 12.47, 1,     7331.9,  -31.6,    1.0184, 0, 0, 0, 0, 0, 0, 0, 0, 0, 0, 0, 0
"N1230123", 12.47, 2,    7680.35, -147.2,    1.0668, 0, 0, 0, 0, 0, 0, 0, 0, 0, 0, 0, 0
"L2708744", 12.47, 2,    7679.74, -147.2,    1.0667, 0, 0, 0, 0, 0, 0, 0, 0, 0, 0, 0, 0
"M1069519", 12.47, 1,    7297.75,  -29.9,    1.0136, 2,    7548.28, -148.5,    1.0484, 3,    7524.72,   95.6,    1.0452, 0, 0, 0, 0
"P901927", 12.47, 2,    7548.28, -148.5,    1.0484, 0, 0, 0, 0, 0, 0, 0, 0, 0, 0, 0, 0
"L2897790", 12.47, 3,    7526.98,   95.6,    1.0455, 0, 0, 0, 0, 0, 0, 0, 0, 0, 0, 0, 0
"L2935566", 12.47, 3,    7526.93,   95.6,    1.0455, 0, 0, 0, 0, 0, 0, 0, 0, 0, 0, 0, 0
"L3216337", 12.47, 1,    7321.33,  -31.6,    1.0169, 0, 0, 0, 0, 0, 0, 0, 0, 0, 0, 0, 0
"P901931", 12.47, 3,    7527.06,   95.6,    1.0455, 0, 0, 0, 0, 0, 0, 0, 0, 0, 0, 0, 0
"M1069548", 12.47, 3,    7527.05,   95.6,    1.0455, 0, 0, 0, 0, 0, 0, 0, 0, 0, 0, 0, 0
"M1010013", 12.47, 1,    7168.44,  -31.9,   0.99568, 0, 0, 0, 0, 0, 0, 0, 0, 0, 0, 0, 0
"L3120503", 12.47, 1,    7168.32,  -31.9,   0.99566, 2,    3591.78,  153.5,   0.49889, 3,    3591.78,  153.5,   0.49889, 4, 1.66345E-020,  153.5, 2.3105E-024
"M1089145", 12.47, 1,     7485.5,  -29.4,    1.0397, 2,    7549.97, -148.6,    1.0487, 3,    7552.28,   91.7,     1.049, 0, 0, 0, 0
"L3215385", 12.47, 1,    7485.48,  -29.4,    1.0397, 2,    7549.94, -148.6,    1.0487, 3,    7552.24,   91.7,     1.049, 0, 0, 0, 0
"M1026852", 12.47, 1,    7328.39,  -31.6,    1.0179, 2,    7393.38, -149.5,    1.0269, 3,    7402.27,   95.7,    1.0282, 0, 0, 0, 0
"M1069420", 12.47, 1,    7329.49,  -31.2,     1.018, 2,    7324.84, -149.6,    1.0174, 3,    7373.15,   95.5,    1.0241, 0, 0, 0, 0
"L3157708", 12.47, 3,    7397.21,   95.6,    1.0275, 0, 0, 0, 0, 0, 0, 0, 0, 0, 0, 0, 0
"N1137991", 12.47, 3,     7397.2,   95.6,    1.0275, 0, 0, 0, 0, 0, 0, 0, 0, 0, 0, 0, 0
"M1108413", 12.47, 1,    7324.67,  -28.3,    1.0174, 0, 0, 0, 0, 0, 0, 0, 0, 0, 0, 0, 0
"M1108460", 12.47, 1,    7323.74,  -28.3,    1.0172, 0, 0, 0, 0, 0, 0, 0, 0, 0, 0, 0, 0
"P827532", 12.47, 1,    7430.73,  -30.5,    1.0321, 0, 0, 0, 0, 0, 0, 0, 0, 0, 0, 0, 0
"M1047326", 12.47, 1,    7430.72,  -30.5,    1.0321, 0, 0, 0, 0, 0, 0, 0, 0, 0, 0, 0, 0
"E182732", 12.47, 1,    7307.68,  -31.3,     1.015, 2,    7400.79, -149.2,    1.0279, 3,    7367.14,   95.7,    1.0233, 0, 0, 0, 0
"M1026760", 12.47, 1,    7307.09,  -31.3,    1.0149, 2,    7400.83, -149.2,     1.028, 3,    7366.94,   95.7,    1.0232, 0, 0, 0, 0
"L3048205", 12.47, 3,    7541.79,   92.1,    1.0475, 0, 0, 0, 0, 0, 0, 0, 0, 0, 0, 0, 0
"M1108361", 12.47, 3,    7534.76,   92.1,    1.0466, 0, 0, 0, 0, 0, 0, 0, 0, 0, 0, 0, 0
"M3036169", 12.47, 1,    7242.87,  -31.5,     1.006, 0, 0, 0, 0, 0, 0, 0, 0, 0, 0, 0, 0
"L2673317", 12.47, 1,     7242.8,  -31.5,     1.006, 0, 0, 0, 0, 0, 0, 0, 0, 0, 0, 0, 0
"L3178981", 12.47, 2,    7428.21, -150.0,    1.0318, 0, 0, 0, 0, 0, 0, 0, 0, 0, 0, 0, 0
"M1047368", 12.47, 2,    7422.67, -150.0,     1.031, 0, 0, 0, 0, 0, 0, 0, 0, 0, 0, 0, 0
"N1136354", 12.47, 1,    7296.83,  -29.9,    1.0135, 2,    7546.55, -148.5,    1.0482, 3,    7526.09,   95.6,    1.0454, 0, 0, 0, 0
"L2879794", 12.47, 1,    7507.92,  -28.8,    1.0428, 0, 0, 0, 0, 0, 0, 0, 0, 0, 0, 0, 0
"M1142811", 12.47, 1,    7507.84,  -28.8,    1.0428, 0, 0, 0, 0, 0, 0, 0, 0, 0, 0, 0, 0
"M1069565", 12.47, 2,    7529.09, -148.5,    1.0458, 0, 0, 0, 0, 0, 0, 0, 0, 0, 0, 0, 0
"L2785536", 12.47, 2,    7528.95, -148.5,    1.0458, 0, 0, 0, 0, 0, 0, 0, 0, 0, 0, 0, 0
"L3104114", 12.47, 2,    7318.02, -149.8,    1.0165, 0, 0, 0, 0, 0, 0, 0, 0, 0, 0, 0, 0
"M1009824", 12.47, 2,    7315.87, -149.8,    1.0162, 0, 0, 0, 0, 0, 0, 0, 0, 0, 0, 0, 0
"L2745848", 12.47, 1,    7343.54,  -31.3,      1.02, 2,    7356.25, -149.4,    1.0218, 3,    7375.91,   95.5,    1.0245, 0, 0, 0, 0
"L2673308", 12.47, 1,    7342.76,  -31.3,    1.0199, 2,    7354.56, -149.4,    1.0215, 3,    7375.74,   95.5,    1.0245, 0, 0, 0, 0
"L2991939", 12.47, 1,    7341.25,  -31.3,    1.0197, 2,     7351.3, -149.5,    1.0211, 3,    7375.38,   95.5,    1.0244, 0, 0, 0, 0
"L2916606", 12.47, 3,    7552.22,   92.2,     1.049, 0, 0, 0, 0, 0, 0, 0, 0, 0, 0, 0, 0
"L2822864", 12.47, 3,    7552.16,   92.2,     1.049, 0, 0, 0, 0, 0, 0, 0, 0, 0, 0, 0, 0
"M1142851", 12.47, 1,    7478.29,  -28.8,    1.0387, 2,    7636.63, -147.9,    1.0607, 3,    7590.68,   92.9,    1.0543, 0, 0, 0, 0
"196-31070", 12.47, 1,    7477.25,  -28.8,    1.0386, 2,    7636.98, -147.9,    1.0608, 3,    7590.59,   92.9,    1.0543, 0, 0, 0, 0
"M1209822", 12.47, 3,    7537.45,   91.3,    1.0469, 0, 0, 0, 0, 0, 0, 0, 0, 0, 0, 0, 0
"M1209823", 12.47, 3,    7535.85,   91.3,    1.0467, 0, 0, 0, 0, 0, 0, 0, 0, 0, 0, 0, 0
"M1069550", 12.47, 2,     7530.8, -148.5,     1.046, 0, 0, 0, 0, 0, 0, 0, 0, 0, 0, 0, 0
"M1069551", 12.47, 2,    7530.62, -148.5,     1.046, 0, 0, 0, 0, 0, 0, 0, 0, 0, 0, 0, 0
"L3141397", 12.47, 2,    7274.16, -149.6,    1.0104, 0, 0, 0, 0, 0, 0, 0, 0, 0, 0, 0, 0
"L3649299", 12.47, 1,    7357.71,  -31.5,     1.022, 0, 0, 0, 0, 0, 0, 0, 0, 0, 0, 0, 0
"M3772794", 12.47, 1,    7357.65,  -31.5,     1.022, 0, 0, 0, 0, 0, 0, 0, 0, 0, 0, 0, 0
"P895106", 12.47, 2,    7675.49, -147.3,    1.0661, 0, 0, 0, 0, 0, 0, 0, 0, 0, 0, 0, 0
"L3048887", 12.47, 2,    7675.36, -147.3,    1.0661, 0, 0, 0, 0, 0, 0, 0, 0, 0, 0, 0, 0
"M1047824", 12.47, 2,    7259.59, -149.6,    1.0083, 0, 0, 0, 0, 0, 0, 0, 0, 0, 0, 0, 0
"M1047834", 12.47, 2,     7256.9, -149.6,     1.008, 0, 0, 0, 0, 0, 0, 0, 0, 0, 0, 0, 0
"M1069350", 12.47, 1,    7323.21,  -31.2,    1.0172, 2,    7307.94, -149.7,    1.0151, 3,    7369.27,   95.4,    1.0236, 0, 0, 0, 0
"N1144668", 12.47, 1,    7323.24,  -31.2,    1.0172, 2,    7307.92, -149.7,    1.0151, 3,    7368.99,   95.4,    1.0235, 0, 0, 0, 0
"L2879072", 12.47, 2,    7280.29, -149.7,    1.0112, 0, 0, 0, 0, 0, 0, 0, 0, 0, 0, 0, 0
"M1047441", 12.47, 2,     7271.7, -149.7,      1.01, 0, 0, 0, 0, 0, 0, 0, 0, 0, 0, 0, 0
"M1108274", 12.47, 2,    7498.15, -149.0,    1.0415, 0, 0, 0, 0, 0, 0, 0, 0, 0, 0, 0, 0
"M1108269", 12.47, 2,    7498.06, -149.0,    1.0415, 0, 0, 0, 0, 0, 0, 0, 0, 0, 0, 0, 0
"L3235244", 12.47, 1,    7320.34,  -31.2,    1.0168, 0, 0, 0, 0, 0, 0, 0, 0, 0, 0, 0, 0
"M1069398", 12.47, 1,    7320.13,  -31.2,    1.0167, 0, 0, 0, 0, 0, 0, 0, 0, 0, 0, 0, 0
"N1147862", 12.47, 1,    7275.99,  -31.7,    1.0106, 0, 0, 0, 0, 0, 0, 0, 0, 0, 0, 0, 0
"L2685805", 12.47, 1,    7275.92,  -31.7,    1.0106, 2,    3645.84,  153.6,    0.5064, 3,    3645.84,  153.6,    0.5064, 4, 1.65771E-020,  153.6, 2.3025E-024
"M1069247", 12.47, 1,    7322.55,  -31.2,    1.0171, 0, 0, 0, 0, 0, 0, 0, 0, 0, 0, 0, 0
"M1069248", 12.47, 1,    7322.31,  -31.2,    1.0171, 0, 0, 0, 0, 0, 0, 0, 0, 0, 0, 0, 0
"L2786273", 12.47, 2,    7497.92, -149.0,    1.0414, 0, 0, 0, 0, 0, 0, 0, 0, 0, 0, 0, 0
"M1108278", 12.47, 2,    7497.72, -149.0,    1.0414, 0, 0, 0, 0, 0, 0, 0, 0, 0, 0, 0, 0
"L3254238", 12.47, 1,    7414.23,  -30.5,    1.0298, 2,    7386.62, -150.1,     1.026, 3,    7530.02,   90.6,    1.0459, 0, 0, 0, 0
"M1047303", 12.47, 1,    7411.69,  -30.5,    1.0295, 2,    7382.64, -150.1,    1.0254, 3,    7529.73,   90.6,    1.0459, 0, 0, 0, 0
"M1047633", 12.47, 3,    7408.19,   95.6,     1.029, 0, 0, 0, 0, 0, 0, 0, 0, 0, 0, 0, 0
"L2897554", 12.47, 3,     7407.6,   95.6,    1.0289, 0, 0, 0, 0, 0, 0, 0, 0, 0, 0, 0, 0
"M1069627", 12.47, 2,    7506.49, -148.6,    1.0426, 0, 0, 0, 0, 0, 0, 0, 0, 0, 0, 0, 0
"L2897791", 12.47, 2,    7506.08, -148.6,    1.0426, 0, 0, 0, 0, 0, 0, 0, 0, 0, 0, 0, 0
"M1089097", 12.47, 2,    7499.96, -149.0,    1.0417, 0, 0, 0, 0, 0, 0, 0, 0, 0, 0, 0, 0
"M1108270", 12.47, 2,    7499.52, -149.0,    1.0417, 0, 0, 0, 0, 0, 0, 0, 0, 0, 0, 0, 0
"N1142101", 12.47, 1,    7290.37,  -28.1,    1.0126, 0, 0, 0, 0, 0, 0, 0, 0, 0, 0, 0, 0
"L2936214", 12.47, 1,    7290.35,  -28.1,    1.0126, 0, 0, 0, 0, 0, 0, 0, 0, 0, 0, 0, 0
"L3066810", 12.47, 3,     7372.7,   95.5,     1.024, 0, 0, 0, 0, 0, 0, 0, 0, 0, 0, 0, 0
"L2897769", 12.47, 3,    7371.73,   95.5,    1.0239, 0, 0, 0, 0, 0, 0, 0, 0, 0, 0, 0, 0
"M1209758", 12.47, 2,    7595.15, -148.5,    1.0549, 0, 0, 0, 0, 0, 0, 0, 0, 0, 0, 0, 0
"M1209753", 12.47, 2,    7594.98, -148.5,    1.0549, 0, 0, 0, 0, 0, 0, 0, 0, 0, 0, 0, 0
"M1047528", 12.47, 1,    7426.64,  -31.2,    1.0315, 2,    7414.73, -149.2,    1.0299, 3,    7419.16,   95.6,    1.0305, 0, 0, 0, 0
"L2858166", 12.47, 1,    7426.18,  -31.2,    1.0315, 2,    7414.56, -149.3,    1.0299, 3,    7419.06,   95.6,    1.0305, 0, 0, 0, 0
"M1142843", 12.47, 1,    7488.48,  -28.8,    1.0401, 2,    7633.23, -148.0,    1.0602, 3,    7591.55,   92.8,    1.0544, 0, 0, 0, 0
"L3081380", 12.47, 1,    7491.39,  -28.8,    1.0405, 2,     7631.6, -148.0,      1.06, 3,    7591.76,   92.8,    1.0545, 0, 0, 0, 0
"L2804272", 12.47, 2,    7530.49, -148.5,     1.046, 0, 0, 0, 0, 0, 0, 0, 0, 0, 0, 0, 0
"L2841641", 12.47, 2,    7530.42, -148.5,     1.046, 0, 0, 0, 0, 0, 0, 0, 0, 0, 0, 0, 0
"M1069393", 12.47, 2,    7294.81, -149.7,    1.0132, 0, 0, 0, 0, 0, 0, 0, 0, 0, 0, 0, 0
"M1069408", 12.47, 2,     7291.7, -149.7,    1.0128, 0, 0, 0, 0, 0, 0, 0, 0, 0, 0, 0, 0
"N1142104", 12.47, 1,    7271.48,  -28.1,      1.01, 2,    7713.74, -146.9,    1.0714, 3,    7591.53,   95.6,    1.0544, 0, 0, 0, 0
"M1108500", 12.47, 1,    7267.38,  -28.1,    1.0094, 2,    7714.56, -146.9,    1.0715, 3,    7591.76,   95.6,    1.0545, 0, 0, 0, 0
"L3216348", 12.47, 1,    7219.92,  -31.5,    1.0028, 0, 0, 0, 0, 0, 0, 0, 0, 0, 0, 0, 0
"L2841627", 12.47, 1,    7218.98,  -31.5,    1.0027, 0, 0, 0, 0, 0, 0, 0, 0, 0, 0, 0, 0
"L2916599", 12.47, 1,    7324.53,  -31.6,    1.0174, 0, 0, 0, 0, 0, 0, 0, 0, 0, 0, 0, 0
"M1047447", 12.47, 2,    7262.41, -149.8,    1.0087, 0, 0, 0, 0, 0, 0, 0, 0, 0, 0, 0, 0
"L2954349", 12.47, 2,    7262.29, -149.8,    1.0087, 0, 0, 0, 0, 0, 0, 0, 0, 0, 0, 0, 0
"L3235246", 12.47, 2,     7260.4, -149.6,    1.0085, 0, 0, 0, 0, 0, 0, 0, 0, 0, 0, 0, 0
"M1125911", 12.47, 2,    7614.81, -148.0,    1.0577, 0, 0, 0, 0, 0, 0, 0, 0, 0, 0, 0, 0
"L2711224", 12.47, 2,    7614.09, -148.0,    1.0576, 0, 0, 0, 0, 0, 0, 0, 0, 0, 0, 0, 0
"N1147863", 12.47, 3,    7399.58,   95.7,    1.0278, 0, 0, 0, 0, 0, 0, 0, 0, 0, 0, 0, 0
"L3122817", 12.47, 3,    7399.57,   95.7,    1.0278, 0, 0, 0, 0, 0, 0, 0, 0, 0, 0, 0, 0
"M1186061", 12.47, 1,    7539.85,  -29.2,    1.0473, 2,    7596.24, -148.5,    1.0551, 3,    7581.47,   91.9,     1.053, 0, 0, 0, 0
"L2861223", 12.47, 2,    7596.22, -148.5,    1.0551, 0, 0, 0, 0, 0, 0, 0, 0, 0, 0, 0, 0
"M1069130", 12.47, 1,    7453.97,  -30.5,    1.0353, 0, 0, 0, 0, 0, 0, 0, 0, 0, 0, 0, 0
"L3085396", 12.47, 1,    7453.84,  -30.5,    1.0353, 0, 0, 0, 0, 0, 0, 0, 0, 0, 0, 0, 0
"E182730", 12.47, 1,    7315.03,  -31.3,     1.016, 0, 0, 0, 0, 0, 0, 0, 0, 0, 0, 0, 0
"N1142109", 12.47, 1,    7314.98,  -31.3,     1.016, 0, 0, 0, 0, 0, 0, 0, 0, 0, 0, 0, 0
"M1069417", 12.47, 1,    7325.44,  -31.2,    1.0175, 2,    7315.65, -149.6,    1.0161, 3,    7373.08,   95.4,    1.0241, 0, 0, 0, 0
"N1138597", 12.47, 1,    7325.11,  -31.2,    1.0174, 2,    7314.91, -149.6,     1.016, 3,    7373.06,   95.4,    1.0241, 0, 0, 0, 0
"M1026987", 12.47, 2,     7270.2, -149.6,    1.0098, 0, 0, 0, 0, 0, 0, 0, 0, 0, 0, 0, 0
"M1026990", 12.47, 2,    7269.35, -149.6,    1.0097, 0, 0, 0, 0, 0, 0, 0, 0, 0, 0, 0, 0
"M1142832", 12.47, 1,    7497.47,  -28.8,    1.0414, 2,    7628.19, -148.0,    1.0595, 3,     7592.2,   92.7,    1.0545, 0, 0, 0, 0
"L3160865", 12.47, 1,    7499.21,  -28.8,    1.0416, 2,    7627.22, -148.0,    1.0594, 3,    7592.41,   92.7,    1.0546, 0, 0, 0, 0
"L2673323", 12.47, 3,    7397.24,   95.7,    1.0275, 0, 0, 0, 0, 0, 0, 0, 0, 0, 0, 0, 0
"M1009809", 12.47, 3,     7397.2,   95.7,    1.0275, 0, 0, 0, 0, 0, 0, 0, 0, 0, 0, 0, 0
"L2822869", 12.47, 1,    7357.62,  -31.2,     1.022, 2,    7396.51, -149.2,    1.0274, 3,    7384.96,   95.7,    1.0258, 0, 0, 0, 0
"M1026808", 12.47, 1,    7351.21,  -31.2,    1.0211, 2,    7396.96, -149.2,    1.0274, 3,    7382.07,   95.7,    1.0253, 0, 0, 0, 0
"M1047825", 12.47, 2,    7253.91, -149.6,    1.0075, 0, 0, 0, 0, 0, 0, 0, 0, 0, 0, 0, 0
"M1069731", 12.47, 2,    7253.39, -149.6,    1.0075, 0, 0, 0, 0, 0, 0, 0, 0, 0, 0, 0, 0
"N1140520", 12.47, 3,    7382.06,   95.7,    1.0253, 0, 0, 0, 0, 0, 0, 0, 0, 0, 0, 0, 0
"L2729410", 12.47, 3,    7382.03,   95.7,    1.0253, 0, 0, 0, 0, 0, 0, 0, 0, 0, 0, 0, 0
"L3178978", 12.47, 1,    7235.77,  -31.5,     1.005, 0, 0, 0, 0, 0, 0, 0, 0, 0, 0, 0, 0
"M1069384", 12.47, 1,    7321.07,  -31.2,    1.0169, 0, 0, 0, 0, 0, 0, 0, 0, 0, 0, 0, 0
"L3066805", 12.47, 1,    7321.03,  -31.2,    1.0169, 0, 0, 0, 0, 0, 0, 0, 0, 0, 0, 0, 0
"M4362181", 12.47, 2,     7251.3, -149.8,    1.0072, 0, 0, 0, 0, 0, 0, 0, 0, 0, 0, 0, 0
"M1047319", 12.47, 3,    7527.79,   90.6,    1.0456, 0, 0, 0, 0, 0, 0, 0, 0, 0, 0, 0, 0
"M1047318", 12.47, 3,    7527.69,   90.6,    1.0456, 0, 0, 0, 0, 0, 0, 0, 0, 0, 0, 0, 0
"L3216358", 12.47, 1,    7310.74,  -31.6,    1.0154, 0, 0, 0, 0, 0, 0, 0, 0, 0, 0, 0, 0
"M1026826", 12.47, 1,    7309.76,  -31.6,    1.0153, 0, 0, 0, 0, 0, 0, 0, 0, 0, 0, 0, 0
"M1108276", 12.47, 2,    7498.02, -149.0,    1.0415, 0, 0, 0, 0, 0, 0, 0, 0, 0, 0, 0, 0
"M1089198", 12.47, 1,    7384.27,  -29.1,    1.0257, 2,    7538.27, -147.7,     1.047, 3,    7509.49,   95.6,     1.043, 0, 0, 0, 0
"M1089201", 12.47, 1,     7369.9,  -29.3,    1.0237, 2,    7540.44, -147.9,    1.0473, 3,    7511.53,   95.6,    1.0433, 0, 0, 0, 0
"M1047763", 12.47, 1,    7337.55,  -31.1,    1.0192, 2,    7291.79, -149.5,    1.0128, 3,    7428.23,   95.7,    1.0318, 0, 0, 0, 0
"N1136027", 12.47, 1,    7337.37,  -31.1,    1.0191, 0, 0, 0, 0, 0, 0, 0, 0, 0, 0, 0, 0
"L3101827", 12.47, 3,    7498.21,   95.6,    1.0415, 0, 0, 0, 0, 0, 0, 0, 0, 0, 0, 0, 0
"M1108540", 12.47, 3,    7497.02,   95.6,    1.0413, 0, 0, 0, 0, 0, 0, 0, 0, 0, 0, 0, 0
"M1026335", 12.47, 1,    7389.05,  -30.5,    1.0263, 0, 0, 0, 0, 0, 0, 0, 0, 0, 0, 0, 0
"L2804259", 12.47, 1,    7388.99,  -30.5,    1.0263, 0, 0, 0, 0, 0, 0, 0, 0, 0, 0, 0, 0
"N1136357", 12.47, 3,    7527.03,   95.6,    1.0455, 0, 0, 0, 0, 0, 0, 0, 0, 0, 0, 0, 0
"M1047513", 12.47, 1,    7384.81,  -31.2,    1.0257, 2,    7399.38, -149.2,    1.0278, 3,    7397.28,   95.6,    1.0275, 0, 0, 0, 0
"M1047507", 12.47, 1,    7373.73,  -31.2,    1.0242, 2,    7395.33, -149.2,    1.0272, 3,    7392.23,   95.7,    1.0268, 0, 0, 0, 0
"M1142863", 12.47, 1,    7467.44,  -28.8,    1.0372, 2,    7640.29, -147.9,    1.0612, 3,    7589.95,   93.1,    1.0542, 0, 0, 0, 0
"N1141480", 12.47, 3,    7589.94,   93.1,    1.0542, 0, 0, 0, 0, 0, 0, 0, 0, 0, 0, 0, 0
"M1125916", 12.47, 2,     7615.4, -148.0,    1.0578, 0, 0, 0, 0, 0, 0, 0, 0, 0, 0, 0, 0
"L2879767", 12.47, 2,    7615.28, -148.0,    1.0577, 0, 0, 0, 0, 0, 0, 0, 0, 0, 0, 0, 0
"L3066809", 12.47, 3,    7372.47,   95.5,     1.024, 0, 0, 0, 0, 0, 0, 0, 0, 0, 0, 0, 0
"M1069487", 12.47, 3,    7371.82,   95.5,    1.0239, 0, 0, 0, 0, 0, 0, 0, 0, 0, 0, 0, 0
"M1142818", 12.47, 1,    7509.62,  -28.8,    1.0431, 2,    7621.41, -148.0,    1.0586, 3,    7593.59,   92.6,    1.0547, 0, 0, 0, 0
"P829965", 12.47, 1,    7509.16,  -28.8,     1.043, 2,    7621.13, -148.0,    1.0586, 3,    7593.65,   92.6,    1.0547, 0, 0, 0, 0
"Q14733", 12.47, 1,    7521.48,  -30.8,    1.0447, 2,    7443.81, -149.0,    1.0339, 3,     7447.7,   95.6,    1.0345, 0, 0, 0, 0
"M1047568", 12.47, 1,    7518.98,  -30.8,    1.0444, 2,    7443.07, -149.0,    1.0338, 3,    7446.92,   95.6,    1.0344, 0, 0, 0, 0
"M1047322", 12.47, 1,    7430.67,  -30.5,    1.0321, 0, 0, 0, 0, 0, 0, 0, 0, 0, 0, 0, 0
"L2954338", 12.47, 2,    7314.87, -149.8,     1.016, 0, 0, 0, 0, 0, 0, 0, 0, 0, 0, 0, 0
"M1047409", 12.47, 1,    7221.06,  -31.5,     1.003, 0, 0, 0, 0, 0, 0, 0, 0, 0, 0, 0, 0
"L2841648", 12.47, 1,    7220.78,  -31.5,    1.0029, 0, 0, 0, 0, 0, 0, 0, 0, 0, 0, 0, 0
"M1089177", 12.47, 3,    7509.16,   92.1,     1.043, 0, 0, 0, 0, 0, 0, 0, 0, 0, 0, 0, 0
"M1026951", 12.47, 2,     7361.3, -149.8,    1.0225, 0, 0, 0, 0, 0, 0, 0, 0, 0, 0, 0, 0
"L2954347", 12.47, 2,    7361.12, -149.8,    1.0224, 0, 0, 0, 0, 0, 0, 0, 0, 0, 0, 0, 0
"M4122657", 12.47, 3,    7507.32,   91.2,    1.0427, 0, 0, 0, 0, 0, 0, 0, 0, 0, 0, 0, 0
"L3027124", 12.47, 3,    7507.21,   91.2,    1.0427, 0, 0, 0, 0, 0, 0, 0, 0, 0, 0, 0, 0
"M1069419", 12.47, 1,    7326.91,  -31.2,    1.0177, 2,    7318.98, -149.6,    1.0166, 3,    7373.11,   95.5,    1.0241, 0, 0, 0, 0
"M1069418", 12.47, 1,    7326.39,  -31.2,    1.0176, 2,     7317.8, -149.6,    1.0164, 3,     7373.1,   95.5,    1.0241, 0, 0, 0, 0
"M1026824", 12.47, 1,    7265.91,  -31.7,    1.0092, 2,    7336.02, -149.8,     1.019, 3,    7397.65,   95.7,    1.0275, 0, 0, 0, 0
"P859694", 12.47, 3,    7397.61,   95.7,    1.0275, 0, 0, 0, 0, 0, 0, 0, 0, 0, 0, 0, 0
"M1047453", 12.47, 2,    7253.99, -149.8,    1.0076, 0, 0, 0, 0, 0, 0, 0, 0, 0, 0, 0, 0
"L2691948", 12.47, 2,    7253.94, -149.8,    1.0076, 0, 0, 0, 0, 0, 0, 0, 0, 0, 0, 0, 0
"P860892", 12.47, 3,    7508.48,   91.2,    1.0429, 0, 0, 0, 0, 0, 0, 0, 0, 0, 0, 0, 0
"N1139543", 12.47, 3,    7508.39,   91.2,    1.0429, 0, 0, 0, 0, 0, 0, 0, 0, 0, 0, 0, 0
"M1089205", 12.47, 1,    7364.44,  -29.3,    1.0229, 0, 0, 0, 0, 0, 0, 0, 0, 0, 0, 0, 0
"N1134472", 12.47, 1,    7364.43,  -29.3,    1.0229, 0, 0, 0, 0, 0, 0, 0, 0, 0, 0, 0, 0
"L2710542", 12.47, 2,    7334.57, -149.8,    1.0188, 0, 0, 0, 0, 0, 0, 0, 0, 0, 0, 0, 0
"M3032980", 12.47, 1,    7540.33,  -29.2,    1.0473, 2,    7596.79, -148.5,    1.0552, 3,    7581.87,   91.9,    1.0531, 0, 0, 0, 0
"M3032977", 12.47, 1,    7531.18,  -29.1,    1.0461, 2,    7604.11, -148.4,    1.0562, 3,    7583.67,   92.0,    1.0534, 0, 0, 0, 0
"M3763618", 12.47, 1,    7381.15,  -31.4,    1.0252, 2,    7403.11, -149.4,    1.0283, 3,    7407.43,   95.6,    1.0289, 0, 0, 0, 0
"P1121282", 12.47, 3,    7407.42,   95.6,    1.0289, 0, 0, 0, 0, 0, 0, 0, 0, 0, 0, 0, 0
"L2917330", 12.47, 1,    7507.72,  -28.8,    1.0428, 0, 0, 0, 0, 0, 0, 0, 0, 0, 0, 0, 0
"L2861222", 12.47, 1,    7507.65,  -28.8,    1.0428, 0, 0, 0, 0, 0, 0, 0, 0, 0, 0, 0, 0
"M1047490", 12.47, 1,    7354.96,  -31.3,    1.0216, 2,    7385.89, -149.3,    1.0259, 3,    7385.58,   95.6,    1.0258, 0, 0, 0, 0
"P1164481", 12.47, 1,    7353.53,  -31.3,    1.0214, 0, 0, 0, 0, 0, 0, 0, 0, 0, 0, 0, 0
"M1069356", 12.47, 3,    7368.57,   95.4,    1.0235, 0, 0, 0, 0, 0, 0, 0, 0, 0, 0, 0, 0
"M1069363", 12.47, 3,    7368.54,   95.4,    1.0235, 0, 0, 0, 0, 0, 0, 0, 0, 0, 0, 0, 0
"P828359", 12.47, 3,    7410.26,   95.6,    1.0293, 0, 0, 0, 0, 0, 0, 0, 0, 0, 0, 0, 0
"L2878848", 12.47, 3,    7409.04,   95.6,    1.0291, 0, 0, 0, 0, 0, 0, 0, 0, 0, 0, 0, 0
"M1047486", 12.47, 1,     7348.7,  -31.3,    1.0207, 2,     7370.6, -149.4,    1.0238, 3,    7380.14,   95.6,    1.0251, 0, 0, 0, 0
"L3177665", 12.47, 1,    7348.67,  -31.3,    1.0207, 0, 0, 0, 0, 0, 0, 0, 0, 0, 0, 0, 0
"L2805036", 12.47, 2,    7497.66, -149.0,    1.0414, 0, 0, 0, 0, 0, 0, 0, 0, 0, 0, 0, 0
"L2692654", 12.47, 1,     7517.8,  -28.8,    1.0442, 2,    3767.32,  156.2,   0.52327, 3,    3767.32,  156.2,   0.52327, 4, 1.64644E-020,  156.2, 2.2869E-024
"M1125929", 12.47, 1,     7517.8,  -28.8,    1.0442, 0, 0, 0, 0, 0, 0, 0, 0, 0, 0, 0, 0
"M1047669", 12.47, 1,    7380.57,  -31.2,    1.0251, 2,    7372.41, -149.4,     1.024, 3,    7411.95,   95.6,    1.0295, 0, 0, 0, 0
"M1047672", 12.47, 1,    7380.41,  -31.2,    1.0251, 2,    7372.21, -149.4,     1.024, 3,    7411.97,   95.6,    1.0295, 0, 0, 0, 0
"M1125919", 12.47, 1,    7517.91,  -28.8,    1.0442, 2,    7616.75, -148.0,    1.0579, 3,    7593.47,   92.5,    1.0547, 0, 0, 0, 0
"P829961", 12.47, 1,     7517.9,  -28.8,    1.0442, 0, 0, 0, 0, 0, 0, 0, 0, 0, 0, 0, 0
"M1142819", 12.47, 1,    7507.66,  -28.8,    1.0428, 2,    7622.42, -148.0,    1.0587, 3,     7593.4,   92.6,    1.0547, 0, 0, 0, 0
"P829960", 12.47, 2,    7622.41, -148.0,    1.0587, 0, 0, 0, 0, 0, 0, 0, 0, 0, 0, 0, 0
"P829979", 12.47, 2,     7596.4, -148.5,    1.0551, 0, 0, 0, 0, 0, 0, 0, 0, 0, 0, 0, 0
"M3036172", 12.47, 2,    7596.29, -148.5,    1.0551, 0, 0, 0, 0, 0, 0, 0, 0, 0, 0, 0, 0
"M1026883", 12.47, 3,    7404.54,   95.6,    1.0285, 0, 0, 0, 0, 0, 0, 0, 0, 0, 0, 0, 0
"M1026898", 12.47, 3,    7404.26,   95.6,    1.0284, 0, 0, 0, 0, 0, 0, 0, 0, 0, 0, 0, 0
"M1089143", 12.47, 1,    7485.69,  -29.4,    1.0397, 2,     7550.1, -148.6,    1.0487, 3,    7552.51,   91.7,     1.049, 0, 0, 0, 0
"L3141400", 12.47, 1,    7485.62,  -29.4,    1.0397, 0, 0, 0, 0, 0, 0, 0, 0, 0, 0, 0, 0
"M1069481", 12.47, 1,    7343.91,  -31.3,      1.02, 2,    7357.04, -149.4,    1.0219, 3,       7376,   95.5,    1.0245, 0, 0, 0, 0
"P827507", 12.47, 3,    7375.98,   95.5,    1.0245, 0, 0, 0, 0, 0, 0, 0, 0, 0, 0, 0, 0
"M1026377", 12.47, 1,    7384.25,  -30.5,    1.0257, 0, 0, 0, 0, 0, 0, 0, 0, 0, 0, 0, 0
"L3048210", 12.47, 1,    7384.12,  -30.5,    1.0256, 0, 0, 0, 0, 0, 0, 0, 0, 0, 0, 0, 0
"E182722", 12.47, 1,    7323.03,  -31.2,    1.0171, 0, 0, 0, 0, 0, 0, 0, 0, 0, 0, 0, 0
"M1026331", 12.47, 1,    7388.82,  -30.5,    1.0263, 2,    7342.44, -150.2,    1.0198, 3,    7535.57,   90.6,    1.0467, 0, 0, 0, 0
"L3214055", 12.47, 1,    3776.21,  -84.4,   0.52451, 2,    3776.21,  -84.4,   0.52451, 3,    7535.51,   90.6,    1.0467, 4, 1.64571E-020,  -84.4, 2.2859E-024
"M1108295", 12.47, 1,    7520.29,  -29.0,    1.0445, 2,    7599.57, -148.2,    1.0556, 3,    7586.05,   92.1,    1.0537, 0, 0, 0, 0
"L2936279", 12.47, 1,    7516.37,  -29.1,     1.044, 2,    7593.81, -148.3,    1.0548, 3,    7582.11,   92.1,    1.0531, 0, 0, 0, 0
"M1026704", 12.47, 2,    7245.21, -149.8,    1.0063, 0, 0, 0, 0, 0, 0, 0, 0, 0, 0, 0, 0
"L2841634", 12.47, 1,    3630.34,   35.5,   0.50424, 2,    7245.07, -149.8,    1.0063, 3,    3630.34,   35.5,   0.50424, 4, 1.65943E-020,   35.5, 2.3049E-024
"M1047386", 12.47, 2,    7411.93, -150.0,    1.0295, 0, 0, 0, 0, 0, 0, 0, 0, 0, 0, 0, 0
"M1047379", 12.47, 2,    7411.27, -150.0,    1.0294, 0, 0, 0, 0, 0, 0, 0, 0, 0, 0, 0, 0
"M1089115", 12.47, 1,    7502.15,  -29.8,     1.042, 2,    7497.08, -149.1,    1.0413, 3,    7518.09,   91.2,    1.0442, 0, 0, 0, 0
"M1026486", 12.47, 2,    7403.32, -150.1,    1.0283, 0, 0, 0, 0, 0, 0, 0, 0, 0, 0, 0, 0
"M1026488", 12.47, 2,    7403.32, -150.1,    1.0283, 0, 0, 0, 0, 0, 0, 0, 0, 0, 0, 0, 0
"L3010570", 12.47, 1,    7389.31,  -30.5,    1.0264, 0, 0, 0, 0, 0, 0, 0, 0, 0, 0, 0, 0
"P904451", 12.47, 1,     7325.9,  -28.3,    1.0175, 0, 0, 0, 0, 0, 0, 0, 0, 0, 0, 0, 0
"221-282819", 12.47, 1,    7325.86,  -28.3,    1.0175, 0, 0, 0, 0, 0, 0, 0, 0, 0, 0, 0, 0
"M1125968", 12.47, 1,    7367.67,  -28.4,    1.0234, 2,    7674.37, -147.3,    1.0659, 3,    7587.37,   94.3,    1.0539, 0, 0, 0, 0
"P895107", 12.47, 3,    7587.35,   94.3,    1.0539, 0, 0, 0, 0, 0, 0, 0, 0, 0, 0, 0, 0
"N1136999", 12.47, 1,    7380.38,  -31.2,    1.0251, 0, 0, 0, 0, 0, 0, 0, 0, 0, 0, 0, 0
"M1069412", 12.47, 2,    7288.07, -149.7,    1.0123, 0, 0, 0, 0, 0, 0, 0, 0, 0, 0, 0, 0
"L2879061", 12.47, 2,    7287.99, -149.7,    1.0123, 0, 0, 0, 0, 0, 0, 0, 0, 0, 0, 0, 0
"M1026947", 12.47, 2,    7361.42, -149.8,    1.0225, 0, 0, 0, 0, 0, 0, 0, 0, 0, 0, 0, 0
"M1142880", 12.47, 3,    7495.71,   91.2,    1.0411, 0, 0, 0, 0, 0, 0, 0, 0, 0, 0, 0, 0
"L2891575", 12.47, 1,    3756.17,  -83.7,   0.52172, 2,    3756.17,  -83.7,   0.52172, 3,     7495.6,   91.2,    1.0411, 4, 1.64741E-020,  -83.7, 2.2882E-024
"M1026848", 12.47, 1,    7297.84,  -31.7,    1.0137, 0, 0, 0, 0, 0, 0, 0, 0, 0, 0, 0, 0
"M1026847", 12.47, 1,    7297.73,  -31.7,    1.0136, 0, 0, 0, 0, 0, 0, 0, 0, 0, 0, 0, 0
"L2897793", 12.47, 1,    7253.07,  -30.4,    1.0074, 0, 0, 0, 0, 0, 0, 0, 0, 0, 0, 0, 0
"M1069521", 12.47, 1,    7252.86,  -30.4,    1.0074, 0, 0, 0, 0, 0, 0, 0, 0, 0, 0, 0, 0
"M1069175", 12.47, 1,    7490.53,  -30.0,    1.0404, 2,    7483.41, -149.3,    1.0394, 3,    7516.62,   91.1,     1.044, 0, 0, 0, 0
"L3197637", 12.47, 3,    7516.56,   91.1,     1.044, 0, 0, 0, 0, 0, 0, 0, 0, 0, 0, 0, 0
"L3197635", 12.47, 2,    7271.65, -149.7,      1.01, 0, 0, 0, 0, 0, 0, 0, 0, 0, 0, 0, 0
"L2804257", 12.47, 2,    7359.02, -149.8,    1.0221, 0, 0, 0, 0, 0, 0, 0, 0, 0, 0, 0, 0
"L2860485", 12.47, 2,     7358.9, -149.8,    1.0221, 0, 0, 0, 0, 0, 0, 0, 0, 0, 0, 0, 0
"L3235945", 12.47, 3,    7496.52,   95.6,    1.0412, 0, 0, 0, 0, 0, 0, 0, 0, 0, 0, 0, 0
"L2842330", 12.47, 3,    7496.36,   95.6,    1.0412, 0, 0, 0, 0, 0, 0, 0, 0, 0, 0, 0, 0
"L2804254", 12.47, 1,    7334.74,  -31.1,    1.0188, 0, 0, 0, 0, 0, 0, 0, 0, 0, 0, 0, 0
"M1047752", 12.47, 1,     7334.7,  -31.1,    1.0188, 0, 0, 0, 0, 0, 0, 0, 0, 0, 0, 0, 0
"M1166370", 12.47, 3,    7585.82,   92.2,    1.0537, 0, 0, 0, 0, 0, 0, 0, 0, 0, 0, 0, 0
"M1166364", 12.47, 3,    7585.76,   92.2,    1.0536, 0, 0, 0, 0, 0, 0, 0, 0, 0, 0, 0, 0
"M3763619", 12.47, 1,    7381.09,  -31.4,    1.0252, 2,    7403.14, -149.4,    1.0283, 3,    7407.62,   95.6,    1.0289, 0, 0, 0, 0
"M3037540", 12.47, 3,    7530.32,   92.1,    1.0459, 0, 0, 0, 0, 0, 0, 0, 0, 0, 0, 0, 0
"L2710509", 12.47, 3,    7530.31,   92.1,    1.0459, 0, 0, 0, 0, 0, 0, 0, 0, 0, 0, 0, 0
"L2763072", 12.47, 2,    7320.79, -150.2,    1.0168, 0, 0, 0, 0, 0, 0, 0, 0, 0, 0, 0, 0
"M4118754", 12.47, 2,    7318.82, -150.2,    1.0166, 0, 0, 0, 0, 0, 0, 0, 0, 0, 0, 0, 0
"M1089196", 12.47, 1,    7392.96,  -29.1,    1.0269, 2,    7536.97, -147.7,    1.0469, 3,    7508.25,   95.6,    1.0429, 0, 0, 0, 0
"M1047484", 12.47, 1,    7347.64,  -31.3,    1.0206, 2,    7367.43, -149.4,    1.0233, 3,    7379.05,   95.6,    1.0249, 0, 0, 0, 0
"L3010560", 12.47, 1,    7347.02,  -31.3,    1.0205, 2,    7365.55, -149.4,    1.0231, 3,     7378.4,   95.6,    1.0248, 0, 0, 0, 0
"L3254219", 12.47, 3,    7533.55,   90.5,    1.0464, 0, 0, 0, 0, 0, 0, 0, 0, 0, 0, 0, 0
"L3254220", 12.47, 3,    7533.52,   90.5,    1.0464, 0, 0, 0, 0, 0, 0, 0, 0, 0, 0, 0, 0
"M1026648", 12.47, 1,    7247.07,  -31.4,    1.0066, 0, 0, 0, 0, 0, 0, 0, 0, 0, 0, 0, 0
"M1026647", 12.47, 1,    7245.68,  -31.4,    1.0064, 0, 0, 0, 0, 0, 0, 0, 0, 0, 0, 0, 0
"M1089112", 12.47, 1,    7499.25,  -29.9,    1.0416, 2,    7492.38, -149.2,    1.0407, 3,    7514.47,   91.2,    1.0437, 0, 0, 0, 0
"L2691951", 12.47, 3,    7512.22,   91.2,    1.0434, 0, 0, 0, 0, 0, 0, 0, 0, 0, 0, 0, 0
"M1108433", 12.47, 2,    7674.96, -147.2,     1.066, 0, 0, 0, 0, 0, 0, 0, 0, 0, 0, 0, 0
"228-1048090-1_INT", 12.47, 2,    7674.96, -147.2,     1.066, 0, 0, 0, 0, 0, 0, 0, 0, 0, 0, 0, 0
"M1026327", 12.47, 2,    7335.96, -150.2,    1.0189, 0, 0, 0, 0, 0, 0, 0, 0, 0, 0, 0, 0
"L2841636", 12.47, 2,    7332.45, -150.2,    1.0185, 0, 0, 0, 0, 0, 0, 0, 0, 0, 0, 0, 0
"L2990826", 12.47, 1,    7320.63,  -28.3,    1.0168, 2,    7676.65, -147.2,    1.0663, 3,    7580.58,   94.8,    1.0529, 0, 0, 0, 0
"L2911069", 12.47, 2,    7298.61, -149.9,    1.0138, 0, 0, 0, 0, 0, 0, 0, 0, 0, 0, 0, 0
"L2948732", 12.47, 2,    7298.47, -149.9,    1.0137, 0, 0, 0, 0, 0, 0, 0, 0, 0, 0, 0, 0
"M1108260", 12.47, 2,    7492.85, -149.0,    1.0407, 0, 0, 0, 0, 0, 0, 0, 0, 0, 0, 0, 0
"M1108259", 12.47, 2,    7492.74, -149.0,    1.0407, 0, 0, 0, 0, 0, 0, 0, 0, 0, 0, 0, 0
"M1069312", 12.47, 3,    7367.55,   95.4,    1.0233, 0, 0, 0, 0, 0, 0, 0, 0, 0, 0, 0, 0
"P873800", 12.47, 3,    7367.53,   95.4,    1.0233, 0, 0, 0, 0, 0, 0, 0, 0, 0, 0, 0, 0
"M1186078", 12.47, 3,    7522.87,   91.3,    1.0449, 0, 0, 0, 0, 0, 0, 0, 0, 0, 0, 0, 0
"L2876797", 12.47, 1,    7339.65,  -31.1,    1.0195, 2,    7299.51, -149.5,    1.0139, 3,    7426.31,   95.7,    1.0315, 0, 0, 0, 0
"R18241", 12.47, 1,    7338.77,  -31.1,    1.0193, 2,    7296.29, -149.5,    1.0134, 3,    7427.11,   95.7,    1.0316, 0, 0, 0, 0
"L3254227", 12.47, 2,    7532.92, -148.5,    1.0463, 0, 0, 0, 0, 0, 0, 0, 0, 0, 0, 0, 0
"M3037455", 12.47, 3,    7591.83,   92.7,    1.0545, 0, 0, 0, 0, 0, 0, 0, 0, 0, 0, 0, 0
"L3217052", 12.47, 3,    7591.79,   92.7,    1.0545, 0, 0, 0, 0, 0, 0, 0, 0, 0, 0, 0, 0
"P827500", 12.47, 1,    7331.54,  -31.2,    1.0183, 0, 0, 0, 0, 0, 0, 0, 0, 0, 0, 0, 0
"L2822861", 12.47, 1,    7331.36,  -31.2,    1.0183, 0, 0, 0, 0, 0, 0, 0, 0, 0, 0, 0, 0
"M1047724", 12.47, 1,    7361.96,  -31.2,    1.0226, 2,     7343.3, -149.4,      1.02, 3,    7416.18,   95.6,    1.0301, 0, 0, 0, 0
"M1047722", 12.47, 1,    7360.47,  -31.2,    1.0224, 2,     7340.7, -149.4,    1.0196, 3,    7416.68,   95.6,    1.0302, 0, 0, 0, 0
"D5534969-2_INT", 12.47, 1,    7300.21,  -29.9,     1.014, 2,     7551.4, -148.4,    1.0489, 3,    7522.29,   95.6,    1.0448, 0, 0, 0, 0
"E182729", 12.47, 1,    7299.98,  -29.9,    1.0139, 2,    7551.26, -148.4,    1.0489, 3,    7522.22,   95.6,    1.0448, 0, 0, 0, 0
"N1134477", 12.47, 1,    7302.02,  -29.9,    1.0142, 2,     7551.1, -148.4,    1.0488, 3,       7522,   95.6,    1.0448, 0, 0, 0, 0
"M1166355", 12.47, 1,    7512.99,  -29.0,    1.0435, 0, 0, 0, 0, 0, 0, 0, 0, 0, 0, 0, 0
"L2858200", 12.47, 1,    7512.99,  -29.0,    1.0435, 0, 0, 0, 0, 0, 0, 0, 0, 0, 0, 0, 0
"M1047699", 12.47, 1,    7374.39,  -31.2,    1.0243, 2,    7364.09, -149.4,    1.0229, 3,    7412.89,   95.6,    1.0296, 0, 0, 0, 0
"L2935554", 12.47, 1,    7371.18,  -31.2,    1.0238, 2,    7359.33, -149.4,    1.0222, 3,    7413.57,   95.6,    1.0297, 0, 0, 0, 0
"M1047292", 12.47, 1,     7402.1,  -30.5,    1.0281, 2,    7367.31, -150.2,    1.0233, 3,     7531.1,   90.6,     1.046, 0, 0, 0, 0
"L2766750", 12.47, 1,    3773.97,  -84.4,   0.52419, 2,    3773.97,  -84.4,   0.52419, 3,    7531.05,   90.6,     1.046, 4, 1.6459E-020,  -84.4, 2.2861E-024
"L3649300", 12.47, 1,    7356.91,  -31.5,    1.0219, 0, 0, 0, 0, 0, 0, 0, 0, 0, 0, 0, 0
"M1047733", 12.47, 1,    7250.92,  -30.4,    1.0071, 0, 0, 0, 0, 0, 0, 0, 0, 0, 0, 0, 0
"L3066804", 12.47, 1,    7250.82,  -30.4,    1.0071, 0, 0, 0, 0, 0, 0, 0, 0, 0, 0, 0, 0
"M3327098", 12.47, 2,    7255.43, -149.6,    1.0078, 0, 0, 0, 0, 0, 0, 0, 0, 0, 0, 0, 0
"L2691943", 12.47, 2,    7255.19, -149.6,    1.0077, 0, 0, 0, 0, 0, 0, 0, 0, 0, 0, 0, 0
"P829986", 12.47, 1,    7523.93,  -28.9,    1.0451, 0, 0, 0, 0, 0, 0, 0, 0, 0, 0, 0, 0
"M1125904", 12.47, 1,    7523.89,  -28.9,     1.045, 0, 0, 0, 0, 0, 0, 0, 0, 0, 0, 0, 0
"N1139550", 12.47, 1,    7242.85,  -31.5,     1.006, 0, 0, 0, 0, 0, 0, 0, 0, 0, 0, 0, 0
"M1026307", 12.47, 2,    7296.62, -150.3,    1.0135, 0, 0, 0, 0, 0, 0, 0, 0, 0, 0, 0, 0
"L3085388", 12.47, 2,    7296.51, -150.3,    1.0135, 0, 0, 0, 0, 0, 0, 0, 0, 0, 0, 0, 0
"L3233413", 12.47, 2,    7675.32, -147.2,    1.0661, 0, 0, 0, 0, 0, 0, 0, 0, 0, 0, 0, 0
"L3122827", 12.47, 1,    7263.25,  -31.4,    1.0088, 0, 0, 0, 0, 0, 0, 0, 0, 0, 0, 0, 0
"L2954355", 12.47, 1,    7261.37,  -31.4,    1.0086, 0, 0, 0, 0, 0, 0, 0, 0, 0, 0, 0, 0
"P827576", 12.47, 2,    7331.21, -149.5,    1.0183, 0, 0, 0, 0, 0, 0, 0, 0, 0, 0, 0, 0
"N1139256", 12.47, 2,    7331.21, -149.5,    1.0183, 0, 0, 0, 0, 0, 0, 0, 0, 0, 0, 0, 0
"L2952003", 12.47, 1,    7323.32,  -28.3,    1.0172, 2,    7678.85, -147.2,    1.0666, 3,    7583.56,   94.8,    1.0533, 0, 0, 0, 0
"N1136359", 12.47, 3,    7527.02,   95.6,    1.0455, 0, 0, 0, 0, 0, 0, 0, 0, 0, 0, 0, 0
"L3008237", 12.47, 3,    7526.99,   95.6,    1.0455, 0, 0, 0, 0, 0, 0, 0, 0, 0, 0, 0, 0
"M1089102", 12.47, 3,    7509.04,   91.2,     1.043, 0, 0, 0, 0, 0, 0, 0, 0, 0, 0, 0, 0
"M1089096", 12.47, 3,    7507.98,   91.2,    1.0428, 0, 0, 0, 0, 0, 0, 0, 0, 0, 0, 0, 0
"P895102", 12.47, 2,    7672.77, -147.4,    1.0657, 0, 0, 0, 0, 0, 0, 0, 0, 0, 0, 0, 0
...